
This summary file was generated by HydroDyn  on 23-Apr-2025 at 11:37:10.

WAMIT Model - Body    1
------------------
  Displaced volume (m^3)                 :     2.020635E+04
  X-offset of the center of buoyancy (m) :     0.000000E+00
  Y-offset of the center of buoyancy (m) :     0.000000E+00


  Buoyancy loads from members modelled with WAMIT, summed about ( 0.0, 0.0, 0.0 )
                                BuoyFxi               BuoyFyi               BuoyFzi               BuoyMxi               BuoyMyi               BuoyMzi 
                                  (N)                   (N)                   (N)                  (N-m)                 (N-m)                 (N-m)  
  External:                 0.000000E+00          0.000000E+00          2.031799E+08          0.000000E+00         -0.000000E+00          0.000000E+00



Radiation memory effect kernel



      n           t                   K11               K12               K13               K14               K15               K16               K21               K22               K23               K24               K25               K26               K31               K32               K33               K34               K35               K36               K41               K42               K43               K44               K45               K46               K51               K52               K53               K54               K55               K56               K61               K62               K63               K64               K65               K66
     (-)         (s)            (kg/s^2)          (kg/s^2)          (kg/s^2)         (kgm/s^2)         (kgm/s^2)         (kgm/s^2)          (kg/s^2)          (kg/s^2)          (kg/s^2)         (kgm/s^2)         (kgm/s^2)         (kgm/s^2)          (kg/s^2)          (kg/s^2)          (kg/s^2)         (kgm/s^2)         (kgm/s^2)         (kgm/s^2)         (kgm/s^2)         (kgm/s^2)         (kgm/s^2)        (kgm^2/s^2)       (kgm^2/s^2)       (kgm^2/s^2)        (kgm/s^2)         (kgm/s^2)         (kgm/s^2)        (kgm^2/s^2)       (kgm^2/s^2)       (kgm^2/s^2)        (kgm/s^2)         (kgm/s^2)         (kgm/s^2)        (kgm^2/s^2)       (kgm^2/s^2)       (kgm^2/s^2)
          0   0.00000E+00       4.37190E+06       0.00000E+00       1.64058E+02       0.00000E+00      -1.60062E+07       0.00000E+00       0.00000E+00       4.37217E+06       0.00000E+00       1.60101E+07       0.00000E+00      -7.48214E+03      -2.25795E+01       0.00000E+00       1.28351E+06       0.00000E+00       3.74148E+01       0.00000E+00       0.00000E+00       1.61820E+07       0.00000E+00       5.78586E+08       0.00000E+00      -6.07894E+04      -1.61806E+07       0.00000E+00      -3.16346E+03       0.00000E+00       5.78562E+08       0.00000E+00       0.00000E+00      -2.45247E+03       0.00000E+00      -8.23426E+04       0.00000E+00       9.44319E+09
          1   0.10000E-01       4.37114E+06       0.00000E+00       1.63879E+02       0.00000E+00      -1.60047E+07       0.00000E+00       0.00000E+00       4.37142E+06       0.00000E+00       1.60086E+07       0.00000E+00      -7.47415E+03      -2.25701E+01       0.00000E+00       1.28344E+06       0.00000E+00       3.63132E+01       0.00000E+00       0.00000E+00       1.61803E+07       0.00000E+00       5.78558E+08       0.00000E+00      -6.07307E+04      -1.61789E+07       0.00000E+00      -3.16174E+03       0.00000E+00       5.78534E+08       0.00000E+00       0.00000E+00      -2.44938E+03       0.00000E+00      -8.22568E+04       0.00000E+00       9.44158E+09
          2   0.20000E-01       4.36888E+06       0.00000E+00       1.63343E+02       0.00000E+00      -1.60002E+07       0.00000E+00       0.00000E+00       4.36915E+06       0.00000E+00       1.60041E+07       0.00000E+00      -7.45022E+03      -2.25420E+01       0.00000E+00       1.28325E+06       0.00000E+00       3.30106E+01       0.00000E+00       0.00000E+00       1.61753E+07       0.00000E+00       5.78474E+08       0.00000E+00      -6.05549E+04      -1.61738E+07       0.00000E+00      -3.15658E+03       0.00000E+00       5.78450E+08       0.00000E+00       0.00000E+00      -2.44014E+03       0.00000E+00      -8.19998E+04       0.00000E+00       9.43675E+09
          3   0.30000E-01       4.36510E+06       0.00000E+00       1.62450E+02       0.00000E+00      -1.59926E+07       0.00000E+00       0.00000E+00       4.36538E+06       0.00000E+00       1.59965E+07       0.00000E+00      -7.41038E+03      -2.24952E+01       0.00000E+00       1.28293E+06       0.00000E+00       2.75135E+01       0.00000E+00       0.00000E+00       1.61669E+07       0.00000E+00       5.78333E+08       0.00000E+00      -6.02623E+04      -1.61654E+07       0.00000E+00      -3.14799E+03       0.00000E+00       5.78309E+08       0.00000E+00       0.00000E+00      -2.42475E+03       0.00000E+00      -8.15719E+04       0.00000E+00       9.42872E+09
          4   0.40000E-01       4.35982E+06       0.00000E+00       1.61203E+02       0.00000E+00      -1.59821E+07       0.00000E+00       0.00000E+00       4.36010E+06       0.00000E+00       1.59859E+07       0.00000E+00      -7.35471E+03      -2.24299E+01       0.00000E+00       1.28247E+06       0.00000E+00       1.98328E+01       0.00000E+00       0.00000E+00       1.61551E+07       0.00000E+00       5.78136E+08       0.00000E+00      -5.98534E+04      -1.61536E+07       0.00000E+00      -3.13599E+03       0.00000E+00       5.78113E+08       0.00000E+00       0.00000E+00      -2.40325E+03       0.00000E+00      -8.09740E+04       0.00000E+00       9.41748E+09
          5   0.50000E-01       4.35304E+06       0.00000E+00       1.59604E+02       0.00000E+00      -1.59685E+07       0.00000E+00       0.00000E+00       4.35332E+06       0.00000E+00       1.59723E+07       0.00000E+00      -7.28332E+03      -2.23461E+01       0.00000E+00       1.28189E+06       0.00000E+00       9.98399E+00       0.00000E+00       0.00000E+00       1.61399E+07       0.00000E+00       5.77884E+08       0.00000E+00      -5.93290E+04      -1.61385E+07       0.00000E+00      -3.12060E+03       0.00000E+00       5.77860E+08       0.00000E+00       0.00000E+00      -2.37567E+03       0.00000E+00      -8.02074E+04       0.00000E+00       9.40304E+09
          6   0.60000E-01       4.34477E+06       0.00000E+00       1.57656E+02       0.00000E+00      -1.59519E+07       0.00000E+00       0.00000E+00       4.34504E+06       0.00000E+00       1.59557E+07       0.00000E+00      -7.19633E+03      -2.22440E+01       0.00000E+00       1.28118E+06       0.00000E+00      -2.01367E+00       0.00000E+00       0.00000E+00       1.61214E+07       0.00000E+00       5.77575E+08       0.00000E+00      -5.86902E+04      -1.61200E+07       0.00000E+00      -3.10184E+03       0.00000E+00       5.77551E+08       0.00000E+00       0.00000E+00      -2.34207E+03       0.00000E+00      -7.92734E+04       0.00000E+00       9.38541E+09
          7   0.70000E-01       4.33500E+06       0.00000E+00       1.55363E+02       0.00000E+00      -1.59324E+07       0.00000E+00       0.00000E+00       4.33527E+06       0.00000E+00       1.59361E+07       0.00000E+00      -7.09392E+03      -2.21238E+01       0.00000E+00       1.28033E+06       0.00000E+00      -1.61362E+01       0.00000E+00       0.00000E+00       1.60996E+07       0.00000E+00       5.77210E+08       0.00000E+00      -5.79381E+04      -1.60982E+07       0.00000E+00      -3.07974E+03       0.00000E+00       5.77186E+08       0.00000E+00       0.00000E+00      -2.30251E+03       0.00000E+00      -7.81738E+04       0.00000E+00       9.36462E+09
          8   0.80000E-01       4.32376E+06       0.00000E+00       1.52729E+02       0.00000E+00      -1.59098E+07       0.00000E+00       0.00000E+00       4.32402E+06       0.00000E+00       1.59135E+07       0.00000E+00      -6.97627E+03      -2.19858E+01       0.00000E+00       1.27936E+06       0.00000E+00      -3.23556E+01       0.00000E+00       0.00000E+00       1.60744E+07       0.00000E+00       5.76789E+08       0.00000E+00      -5.70742E+04      -1.60731E+07       0.00000E+00      -3.05434E+03       0.00000E+00       5.76765E+08       0.00000E+00       0.00000E+00      -2.25707E+03       0.00000E+00      -7.69109E+04       0.00000E+00       9.34066E+09
          9   0.90000E-01       4.31103E+06       0.00000E+00       1.49759E+02       0.00000E+00      -1.58843E+07       0.00000E+00       0.00000E+00       4.31130E+06       0.00000E+00       1.58879E+07       0.00000E+00      -6.84362E+03      -2.18302E+01       0.00000E+00       1.27827E+06       0.00000E+00      -5.06396E+01       0.00000E+00       0.00000E+00       1.60460E+07       0.00000E+00       5.76312E+08       0.00000E+00      -5.61001E+04      -1.60446E+07       0.00000E+00      -3.02568E+03       0.00000E+00       5.76288E+08       0.00000E+00       0.00000E+00      -2.20582E+03       0.00000E+00      -7.54871E+04       0.00000E+00       9.31357E+09
         10   0.10000E+00       4.29685E+06       0.00000E+00       1.46459E+02       0.00000E+00      -1.58558E+07       0.00000E+00       0.00000E+00       4.29711E+06       0.00000E+00       1.58593E+07       0.00000E+00      -6.69620E+03      -2.16574E+01       0.00000E+00       1.27704E+06       0.00000E+00      -7.09520E+01       0.00000E+00       0.00000E+00       1.60142E+07       0.00000E+00       5.75780E+08       0.00000E+00      -5.50178E+04      -1.60129E+07       0.00000E+00      -2.99382E+03       0.00000E+00       5.75756E+08       0.00000E+00       0.00000E+00      -2.14887E+03       0.00000E+00      -7.39052E+04       0.00000E+00       9.28336E+09
         11   0.11000E+00       4.28122E+06       0.00000E+00       1.42836E+02       0.00000E+00      -1.58243E+07       0.00000E+00       0.00000E+00       4.28147E+06       0.00000E+00       1.58278E+07       0.00000E+00      -6.53430E+03      -2.14677E+01       0.00000E+00       1.27569E+06       0.00000E+00      -9.32521E+01       0.00000E+00       0.00000E+00       1.59791E+07       0.00000E+00       5.75192E+08       0.00000E+00      -5.38293E+04      -1.59779E+07       0.00000E+00      -2.95880E+03       0.00000E+00       5.75168E+08       0.00000E+00       0.00000E+00      -2.08633E+03       0.00000E+00      -7.21682E+04       0.00000E+00       9.25006E+09
         12   0.12000E+00       4.26414E+06       0.00000E+00       1.38896E+02       0.00000E+00      -1.57899E+07       0.00000E+00       0.00000E+00       4.26439E+06       0.00000E+00       1.57933E+07       0.00000E+00      -6.35823E+03      -2.12615E+01       0.00000E+00       1.27421E+06       0.00000E+00      -1.17496E+02       0.00000E+00       0.00000E+00       1.59408E+07       0.00000E+00       5.74548E+08       0.00000E+00      -5.25368E+04      -1.59396E+07       0.00000E+00      -2.92068E+03       0.00000E+00       5.74524E+08       0.00000E+00       0.00000E+00      -2.01830E+03       0.00000E+00      -7.02796E+04       0.00000E+00       9.21368E+09
         13   0.13000E+00       4.24564E+06       0.00000E+00       1.34648E+02       0.00000E+00      -1.57526E+07       0.00000E+00       0.00000E+00       4.24589E+06       0.00000E+00       1.57559E+07       0.00000E+00      -6.16831E+03      -2.10391E+01       0.00000E+00       1.27261E+06       0.00000E+00      -1.43635E+02       0.00000E+00       0.00000E+00       1.58993E+07       0.00000E+00       5.73850E+08       0.00000E+00      -5.11429E+04      -1.58981E+07       0.00000E+00      -2.87954E+03       0.00000E+00       5.73825E+08       0.00000E+00       0.00000E+00      -1.94492E+03       0.00000E+00      -6.82429E+04       0.00000E+00       9.17427E+09
         14   0.14000E+00       4.22573E+06       0.00000E+00       1.30099E+02       0.00000E+00      -1.57123E+07       0.00000E+00       0.00000E+00       4.22598E+06       0.00000E+00       1.57155E+07       0.00000E+00      -5.96491E+03      -2.08011E+01       0.00000E+00       1.27088E+06       0.00000E+00      -1.71618E+02       0.00000E+00       0.00000E+00       1.58545E+07       0.00000E+00       5.73096E+08       0.00000E+00      -4.96503E+04      -1.58534E+07       0.00000E+00      -2.83543E+03       0.00000E+00       5.73071E+08       0.00000E+00       0.00000E+00      -1.86633E+03       0.00000E+00      -6.60623E+04       0.00000E+00       9.13184E+09
         15   0.15000E+00       4.20442E+06       0.00000E+00       1.25258E+02       0.00000E+00      -1.56692E+07       0.00000E+00       0.00000E+00       4.20466E+06       0.00000E+00       1.56722E+07       0.00000E+00      -5.74841E+03      -2.05479E+01       0.00000E+00       1.26903E+06       0.00000E+00      -2.01388E+02       0.00000E+00       0.00000E+00       1.58066E+07       0.00000E+00       5.72287E+08       0.00000E+00      -4.80618E+04      -1.58055E+07       0.00000E+00      -2.78843E+03       0.00000E+00       5.72262E+08       0.00000E+00       0.00000E+00      -1.78267E+03       0.00000E+00      -6.37419E+04       0.00000E+00       9.08644E+09
         16   0.16000E+00       4.18174E+06       0.00000E+00       1.20134E+02       0.00000E+00      -1.56231E+07       0.00000E+00       0.00000E+00       4.18197E+06       0.00000E+00       1.56261E+07       0.00000E+00      -5.51922E+03      -2.02800E+01       0.00000E+00       1.26706E+06       0.00000E+00      -2.32887E+02       0.00000E+00       0.00000E+00       1.57554E+07       0.00000E+00       5.71423E+08       0.00000E+00      -4.63804E+04      -1.57544E+07       0.00000E+00      -2.73862E+03       0.00000E+00       5.71398E+08       0.00000E+00       0.00000E+00      -1.69410E+03       0.00000E+00      -6.12862E+04       0.00000E+00       9.03808E+09
         17   0.17000E+00       4.15769E+06       0.00000E+00       1.14738E+02       0.00000E+00      -1.55742E+07       0.00000E+00       0.00000E+00       4.15792E+06       0.00000E+00       1.55771E+07       0.00000E+00      -5.27777E+03      -1.99980E+01       0.00000E+00       1.26496E+06       0.00000E+00      -2.66051E+02       0.00000E+00       0.00000E+00       1.57012E+07       0.00000E+00       5.70504E+08       0.00000E+00      -4.46095E+04      -1.57002E+07       0.00000E+00      -2.68609E+03       0.00000E+00       5.70479E+08       0.00000E+00       0.00000E+00      -1.60079E+03       0.00000E+00      -5.87000E+04       0.00000E+00       8.98682E+09
         18   0.18000E+00       4.13230E+06       0.00000E+00       1.09080E+02       0.00000E+00      -1.55225E+07       0.00000E+00       0.00000E+00       4.13252E+06       0.00000E+00       1.55252E+07       0.00000E+00      -5.02451E+03      -1.97024E+01       0.00000E+00       1.26275E+06       0.00000E+00      -3.00816E+02       0.00000E+00       0.00000E+00       1.56438E+07       0.00000E+00       5.69531E+08       0.00000E+00      -4.27523E+04      -1.56429E+07       0.00000E+00      -2.63092E+03       0.00000E+00       5.69506E+08       0.00000E+00       0.00000E+00      -1.50291E+03       0.00000E+00      -5.59884E+04       0.00000E+00       8.93269E+09
         19   0.19000E+00       4.10558E+06       0.00000E+00       1.03172E+02       0.00000E+00      -1.54679E+07       0.00000E+00       0.00000E+00       4.10580E+06       0.00000E+00       1.54705E+07       0.00000E+00      -4.75994E+03      -1.93938E+01       0.00000E+00       1.26041E+06       0.00000E+00      -3.37110E+02       0.00000E+00       0.00000E+00       1.55834E+07       0.00000E+00       5.68504E+08       0.00000E+00      -4.08124E+04      -1.55825E+07       0.00000E+00      -2.57320E+03       0.00000E+00       5.68479E+08       0.00000E+00       0.00000E+00      -1.40064E+03       0.00000E+00      -5.31567E+04       0.00000E+00       8.87574E+09
         20   0.20000E+00       4.07756E+06       0.00000E+00       9.70235E+01       0.00000E+00      -1.54105E+07       0.00000E+00       0.00000E+00       4.07777E+06       0.00000E+00       1.54130E+07       0.00000E+00      -4.48454E+03      -1.90728E+01       0.00000E+00       1.25795E+06       0.00000E+00      -3.74863E+02       0.00000E+00       0.00000E+00       1.55199E+07       0.00000E+00       5.67423E+08       0.00000E+00      -3.87936E+04      -1.55191E+07       0.00000E+00      -2.51303E+03       0.00000E+00       5.67397E+08       0.00000E+00       0.00000E+00      -1.29419E+03       0.00000E+00      -5.02104E+04       0.00000E+00       8.81599E+09
         21   0.21000E+00       4.04826E+06       0.00000E+00       9.06477E+01       0.00000E+00      -1.53504E+07       0.00000E+00       0.00000E+00       4.04846E+06       0.00000E+00       1.53527E+07       0.00000E+00      -4.19884E+03      -1.87400E+01       0.00000E+00       1.25538E+06       0.00000E+00      -4.13999E+02       0.00000E+00       0.00000E+00       1.54534E+07       0.00000E+00       5.66288E+08       0.00000E+00      -3.66999E+04      -1.54527E+07       0.00000E+00      -2.45052E+03       0.00000E+00       5.66262E+08       0.00000E+00       0.00000E+00      -1.18374E+03       0.00000E+00      -4.71552E+04       0.00000E+00       8.75350E+09
         22   0.22000E+00       4.01770E+06       0.00000E+00       8.40566E+01       0.00000E+00      -1.52875E+07       0.00000E+00       0.00000E+00       4.01789E+06       0.00000E+00       1.52896E+07       0.00000E+00      -3.90338E+03      -1.83962E+01       0.00000E+00       1.25269E+06       0.00000E+00      -4.54440E+02       0.00000E+00       0.00000E+00       1.53839E+07       0.00000E+00       5.65099E+08       0.00000E+00      -3.45350E+04      -1.53833E+07       0.00000E+00      -2.38577E+03       0.00000E+00       5.65073E+08       0.00000E+00       0.00000E+00      -1.06950E+03       0.00000E+00      -4.39971E+04       0.00000E+00       8.68832E+09
         23   0.23000E+00       3.98590E+06       0.00000E+00       7.72634E+01       0.00000E+00      -1.52218E+07       0.00000E+00       0.00000E+00       3.98609E+06       0.00000E+00       1.52239E+07       0.00000E+00      -3.59871E+03      -1.80420E+01       0.00000E+00       1.24988E+06       0.00000E+00      -4.96105E+02       0.00000E+00       0.00000E+00       1.53116E+07       0.00000E+00       5.63857E+08       0.00000E+00      -3.23033E+04      -1.53110E+07       0.00000E+00      -2.31888E+03       0.00000E+00       5.63831E+08       0.00000E+00       0.00000E+00      -9.51692E+02       0.00000E+00      -4.07423E+04       0.00000E+00       8.62049E+09
         24   0.24000E+00       3.95289E+06       0.00000E+00       7.02808E+01       0.00000E+00      -1.51535E+07       0.00000E+00       0.00000E+00       3.95307E+06       0.00000E+00       1.51554E+07       0.00000E+00      -3.28542E+03      -1.76780E+01       0.00000E+00       1.24696E+06       0.00000E+00      -5.38910E+02       0.00000E+00       0.00000E+00       1.52362E+07       0.00000E+00       5.62562E+08       0.00000E+00      -3.00090E+04      -1.52357E+07       0.00000E+00      -2.24997E+03       0.00000E+00       5.62536E+08       0.00000E+00       0.00000E+00      -8.30535E+02       0.00000E+00      -3.73971E+04       0.00000E+00       8.55006E+09
         25   0.25000E+00       3.91869E+06       0.00000E+00       6.31228E+01       0.00000E+00      -1.50825E+07       0.00000E+00       0.00000E+00       3.91887E+06       0.00000E+00       1.50842E+07       0.00000E+00      -2.96409E+03      -1.73051E+01       0.00000E+00       1.24393E+06       0.00000E+00      -5.82772E+02       0.00000E+00       0.00000E+00       1.51581E+07       0.00000E+00       5.61215E+08       0.00000E+00      -2.76565E+04      -1.51577E+07       0.00000E+00      -2.17916E+03       0.00000E+00       5.61188E+08       0.00000E+00       0.00000E+00      -7.06258E+02       0.00000E+00      -3.39680E+04       0.00000E+00       8.47708E+09
         26   0.26000E+00       3.88333E+06       0.00000E+00       5.58031E+01       0.00000E+00      -1.50088E+07       0.00000E+00       0.00000E+00       3.88350E+06       0.00000E+00       1.50103E+07       0.00000E+00      -2.63533E+03      -1.69239E+01       0.00000E+00       1.24079E+06       0.00000E+00      -6.27601E+02       0.00000E+00       0.00000E+00       1.50771E+07       0.00000E+00       5.59814E+08       0.00000E+00      -2.52504E+04      -1.50768E+07       0.00000E+00      -2.10656E+03       0.00000E+00       5.59788E+08       0.00000E+00       0.00000E+00      -5.79091E+02       0.00000E+00      -3.04617E+04       0.00000E+00       8.40161E+09
         27   0.27000E+00       3.84684E+06       0.00000E+00       4.83361E+01       0.00000E+00      -1.49325E+07       0.00000E+00       0.00000E+00       3.84700E+06       0.00000E+00       1.49339E+07       0.00000E+00      -2.29978E+03      -1.65352E+01       0.00000E+00       1.23753E+06       0.00000E+00      -6.73307E+02       0.00000E+00       0.00000E+00       1.49934E+07       0.00000E+00       5.58362E+08       0.00000E+00      -2.27952E+04      -1.49931E+07       0.00000E+00      -2.03229E+03       0.00000E+00       5.58335E+08       0.00000E+00       0.00000E+00      -4.49277E+02       0.00000E+00      -2.68851E+04       0.00000E+00       8.32371E+09
         28   0.28000E+00       3.80923E+06       0.00000E+00       4.07362E+01       0.00000E+00      -1.48536E+07       0.00000E+00       0.00000E+00       3.80939E+06       0.00000E+00       1.48548E+07       0.00000E+00      -1.95804E+03      -1.61397E+01       0.00000E+00       1.23417E+06       0.00000E+00      -7.19801E+02       0.00000E+00       0.00000E+00       1.49069E+07       0.00000E+00       5.56858E+08       0.00000E+00      -2.02956E+04      -1.49067E+07       0.00000E+00      -1.95649E+03       0.00000E+00       5.56830E+08       0.00000E+00       0.00000E+00      -3.17056E+02       0.00000E+00      -2.32452E+04       0.00000E+00       8.24342E+09
         29   0.29000E+00       3.77055E+06       0.00000E+00       3.30183E+01       0.00000E+00      -1.47721E+07       0.00000E+00       0.00000E+00       3.77070E+06       0.00000E+00       1.47732E+07       0.00000E+00      -1.61080E+03      -1.57383E+01       0.00000E+00       1.23070E+06       0.00000E+00      -7.66988E+02       0.00000E+00       0.00000E+00       1.48177E+07       0.00000E+00       5.55302E+08       0.00000E+00      -1.77566E+04      -1.48176E+07       0.00000E+00      -1.87926E+03       0.00000E+00       5.55274E+08       0.00000E+00       0.00000E+00      -1.82680E+02       0.00000E+00      -1.95491E+04       0.00000E+00       8.16081E+09
         30   0.30000E+00       3.73082E+06       0.00000E+00       2.51974E+01       0.00000E+00      -1.46882E+07       0.00000E+00       0.00000E+00       3.73095E+06       0.00000E+00       1.46890E+07       0.00000E+00      -1.25868E+03      -1.53317E+01       0.00000E+00       1.22712E+06       0.00000E+00      -8.14773E+02       0.00000E+00       0.00000E+00       1.47259E+07       0.00000E+00       5.53695E+08       0.00000E+00      -1.51829E+04      -1.47259E+07       0.00000E+00      -1.80076E+03       0.00000E+00       5.53667E+08       0.00000E+00       0.00000E+00      -4.63991E+01       0.00000E+00      -1.58039E+04       0.00000E+00       8.07593E+09
         31   0.31000E+00       3.69006E+06       0.00000E+00       1.72888E+01       0.00000E+00      -1.46017E+07       0.00000E+00       0.00000E+00       3.69019E+06       0.00000E+00       1.46024E+07       0.00000E+00      -9.02369E+02      -1.49207E+01       0.00000E+00       1.22344E+06       0.00000E+00      -8.63062E+02       0.00000E+00       0.00000E+00       1.46315E+07       0.00000E+00       5.52036E+08       0.00000E+00      -1.25795E+04      -1.46316E+07       0.00000E+00      -1.72110E+03       0.00000E+00       5.52009E+08       0.00000E+00       0.00000E+00       9.15271E+01       0.00000E+00      -1.20171E+04       0.00000E+00       7.98886E+09
         32   0.32000E+00       3.64831E+06       0.00000E+00       9.30777E+00       0.00000E+00      -1.45127E+07       0.00000E+00       0.00000E+00       3.64843E+06       0.00000E+00       1.45133E+07       0.00000E+00      -5.42527E+02      -1.45061E+01       0.00000E+00       1.21965E+06       0.00000E+00      -9.11757E+02       0.00000E+00       0.00000E+00       1.45346E+07       0.00000E+00       5.50328E+08       0.00000E+00      -9.95132E+03      -1.45347E+07       0.00000E+00      -1.64042E+03       0.00000E+00       5.50299E+08       0.00000E+00       0.00000E+00       2.30843E+02       0.00000E+00      -8.19607E+03       0.00000E+00       7.89964E+09
         33   0.33000E+00       3.60559E+06       0.00000E+00       1.27014E+00       0.00000E+00      -1.44214E+07       0.00000E+00       0.00000E+00       3.60571E+06       0.00000E+00       1.44217E+07       0.00000E+00      -1.79855E+02      -1.40887E+01       0.00000E+00       1.21576E+06       0.00000E+00      -9.60759E+02       0.00000E+00       0.00000E+00       1.44351E+07       0.00000E+00       5.48569E+08       0.00000E+00      -7.30352E+03      -1.44353E+07       0.00000E+00      -1.55885E+03       0.00000E+00       5.48540E+08       0.00000E+00       0.00000E+00       3.71283E+02       0.00000E+00      -4.34821E+03       0.00000E+00       7.80834E+09
         34   0.34000E+00       3.56195E+06       0.00000E+00      -6.80865E+00       0.00000E+00      -1.43276E+07       0.00000E+00       0.00000E+00       3.56205E+06       0.00000E+00       1.43278E+07       0.00000E+00       1.84982E+02      -1.36693E+01       0.00000E+00       1.21177E+06       0.00000E+00      -1.00997E+03       0.00000E+00       0.00000E+00       1.43332E+07       0.00000E+00       5.46759E+08       0.00000E+00      -4.64111E+03      -1.43336E+07       0.00000E+00      -1.47653E+03       0.00000E+00       5.46731E+08       0.00000E+00       0.00000E+00       5.12584E+02       0.00000E+00      -4.81086E+02       0.00000E+00       7.71502E+09
         35   0.35000E+00       3.51740E+06       0.00000E+00      -1.49126E+01       0.00000E+00      -1.42315E+07       0.00000E+00       0.00000E+00       3.51750E+06       0.00000E+00       1.42315E+07       0.00000E+00       5.51269E+02      -1.32487E+01       0.00000E+00       1.20769E+06       0.00000E+00      -1.05929E+03       0.00000E+00       0.00000E+00       1.42290E+07       0.00000E+00       5.44901E+08       0.00000E+00      -1.96926E+03      -1.42294E+07       0.00000E+00      -1.39360E+03       0.00000E+00       5.44872E+08       0.00000E+00       0.00000E+00       6.54480E+02       0.00000E+00       3.39770E+03       0.00000E+00       7.61976E+09
         36   0.36000E+00       3.47198E+06       0.00000E+00      -2.30260E+01       0.00000E+00      -1.41330E+07       0.00000E+00       0.00000E+00       3.47207E+06       0.00000E+00       1.41329E+07       0.00000E+00       9.18337E+02      -1.28278E+01       0.00000E+00       1.20350E+06       0.00000E+00      -1.10863E+03       0.00000E+00       0.00000E+00       1.41223E+07       0.00000E+00       5.42993E+08       0.00000E+00       7.06961E+02      -1.41228E+07       0.00000E+00      -1.31020E+03       0.00000E+00       5.42964E+08       0.00000E+00       0.00000E+00       7.96704E+02       0.00000E+00       7.28060E+03       0.00000E+00       7.52261E+09
         37   0.37000E+00       3.42573E+06       0.00000E+00      -3.11329E+01       0.00000E+00      -1.40323E+07       0.00000E+00       0.00000E+00       3.42581E+06       0.00000E+00       1.40320E+07       0.00000E+00       1.28546E+03      -1.24073E+01       0.00000E+00       1.19923E+06       0.00000E+00      -1.15787E+03       0.00000E+00       0.00000E+00       1.40134E+07       0.00000E+00       5.41036E+08       0.00000E+00       3.38236E+03      -1.40140E+07       0.00000E+00      -1.22646E+03       0.00000E+00       5.41007E+08       0.00000E+00       0.00000E+00       9.38986E+02       0.00000E+00       1.11599E+04       0.00000E+00       7.42365E+09
         38   0.38000E+00       3.37868E+06       0.00000E+00      -3.92175E+01       0.00000E+00      -1.39293E+07       0.00000E+00       0.00000E+00       3.37874E+06       0.00000E+00       1.39288E+07       0.00000E+00       1.65197E+03      -1.19880E+01       0.00000E+00       1.19485E+06       0.00000E+00      -1.20692E+03       0.00000E+00       0.00000E+00       1.39023E+07       0.00000E+00       5.39031E+08       0.00000E+00       6.05186E+03      -1.39029E+07       0.00000E+00      -1.14253E+03       0.00000E+00       5.39002E+08       0.00000E+00       0.00000E+00       1.08106E+03       0.00000E+00       1.50282E+04       0.00000E+00       7.32293E+09
         39   0.39000E+00       3.33084E+06       0.00000E+00      -4.72638E+01       0.00000E+00      -1.38242E+07       0.00000E+00       0.00000E+00       3.33091E+06       0.00000E+00       1.38235E+07       0.00000E+00       2.01715E+03      -1.15707E+01       0.00000E+00       1.19039E+06       0.00000E+00      -1.25569E+03       0.00000E+00       0.00000E+00       1.37890E+07       0.00000E+00       5.36978E+08       0.00000E+00       8.71026E+03      -1.37897E+07       0.00000E+00      -1.05854E+03       0.00000E+00       5.36948E+08       0.00000E+00       0.00000E+00       1.22266E+03       0.00000E+00       1.88776E+04       0.00000E+00       7.22054E+09
         40   0.40000E+00       3.28228E+06       0.00000E+00      -5.52563E+01       0.00000E+00      -1.37168E+07       0.00000E+00       0.00000E+00       3.28233E+06       0.00000E+00       1.37159E+07       0.00000E+00       2.38032E+03      -1.11563E+01       0.00000E+00       1.18583E+06       0.00000E+00      -1.30407E+03       0.00000E+00       0.00000E+00       1.36735E+07       0.00000E+00       5.34877E+08       0.00000E+00       1.13525E+04      -1.36743E+07       0.00000E+00      -9.74635E+02       0.00000E+00       5.34847E+08       0.00000E+00       0.00000E+00       1.36351E+03       0.00000E+00       2.27009E+04       0.00000E+00       7.11653E+09
         41   0.41000E+00       3.23300E+06       0.00000E+00      -6.31790E+01       0.00000E+00      -1.36074E+07       0.00000E+00       0.00000E+00       3.23305E+06       0.00000E+00       1.36063E+07       0.00000E+00       2.74078E+03      -1.07454E+01       0.00000E+00       1.18118E+06       0.00000E+00      -1.35197E+03       0.00000E+00       0.00000E+00       1.35560E+07       0.00000E+00       5.32729E+08       0.00000E+00       1.39735E+04      -1.35569E+07       0.00000E+00      -8.90953E+02       0.00000E+00       5.32699E+08       0.00000E+00       0.00000E+00       1.50335E+03       0.00000E+00       2.64903E+04       0.00000E+00       7.01099E+09
         42   0.42000E+00       3.18306E+06       0.00000E+00      -7.10165E+01       0.00000E+00      -1.34958E+07       0.00000E+00       0.00000E+00       3.18310E+06       0.00000E+00       1.34946E+07       0.00000E+00       3.09785E+03      -1.03389E+01       0.00000E+00       1.17645E+06       0.00000E+00      -1.39928E+03       0.00000E+00       0.00000E+00       1.34364E+07       0.00000E+00       5.30533E+08       0.00000E+00       1.65683E+04      -1.34374E+07       0.00000E+00      -8.07630E+02       0.00000E+00       5.30503E+08       0.00000E+00       0.00000E+00       1.64192E+03       0.00000E+00       3.02384E+04       0.00000E+00       6.90397E+09
         43   0.43000E+00       3.13247E+06       0.00000E+00      -7.87534E+01       0.00000E+00      -1.33822E+07       0.00000E+00       0.00000E+00       3.13251E+06       0.00000E+00       1.33808E+07       0.00000E+00       3.45085E+03      -9.93753E+00       0.00000E+00       1.17163E+06       0.00000E+00      -1.44591E+03       0.00000E+00       0.00000E+00       1.33150E+07       0.00000E+00       5.28292E+08       0.00000E+00       1.91318E+04      -1.33160E+07       0.00000E+00      -7.24808E+02       0.00000E+00       5.28261E+08       0.00000E+00       0.00000E+00       1.77895E+03       0.00000E+00       3.39380E+04       0.00000E+00       6.79555E+09
         44   0.44000E+00       3.08129E+06       0.00000E+00      -8.63744E+01       0.00000E+00      -1.32666E+07       0.00000E+00       0.00000E+00       3.08131E+06       0.00000E+00       1.32650E+07       0.00000E+00       3.79911E+03      -9.54200E+00       0.00000E+00       1.16672E+06       0.00000E+00      -1.49177E+03       0.00000E+00       0.00000E+00       1.31915E+07       0.00000E+00       5.26004E+08       0.00000E+00       2.16591E+04      -1.31927E+07       0.00000E+00      -6.42622E+02       0.00000E+00       5.25973E+08       0.00000E+00       0.00000E+00       1.91419E+03       0.00000E+00       3.75816E+04       0.00000E+00       6.68579E+09
         45   0.45000E+00       3.02953E+06       0.00000E+00      -9.38644E+01       0.00000E+00      -1.31490E+07       0.00000E+00       0.00000E+00       3.02954E+06       0.00000E+00       1.31473E+07       0.00000E+00       4.14195E+03      -9.15300E+00       0.00000E+00       1.16173E+06       0.00000E+00      -1.53676E+03       0.00000E+00       0.00000E+00       1.30663E+07       0.00000E+00       5.23671E+08       0.00000E+00       2.41454E+04      -1.30675E+07       0.00000E+00      -5.61209E+02       0.00000E+00       5.23640E+08       0.00000E+00       0.00000E+00       2.04737E+03       0.00000E+00       4.11622E+04       0.00000E+00       6.57477E+09
         46   0.46000E+00       2.97723E+06       0.00000E+00      -1.01209E+02       0.00000E+00      -1.30296E+07       0.00000E+00       0.00000E+00       2.97723E+06       0.00000E+00       1.30276E+07       0.00000E+00       4.47875E+03      -8.77132E+00       0.00000E+00       1.15666E+06       0.00000E+00      -1.58079E+03       0.00000E+00       0.00000E+00       1.29392E+07       0.00000E+00       5.21292E+08       0.00000E+00       2.65860E+04      -1.29406E+07       0.00000E+00      -4.80701E+02       0.00000E+00       5.21261E+08       0.00000E+00       0.00000E+00       2.17825E+03       0.00000E+00       4.46726E+04       0.00000E+00       6.46256E+09
         47   0.47000E+00       2.92443E+06       0.00000E+00      -1.08393E+02       0.00000E+00      -1.29082E+07       0.00000E+00       0.00000E+00       2.92443E+06       0.00000E+00       1.29061E+07       0.00000E+00       4.80883E+03      -8.39758E+00       0.00000E+00       1.15151E+06       0.00000E+00      -1.62376E+03       0.00000E+00       0.00000E+00       1.28105E+07       0.00000E+00       5.18868E+08       0.00000E+00       2.89760E+04      -1.28119E+07       0.00000E+00      -4.01235E+02       0.00000E+00       5.18837E+08       0.00000E+00       0.00000E+00       2.30658E+03       0.00000E+00       4.81059E+04       0.00000E+00       6.34925E+09
         48   0.48000E+00       2.87117E+06       0.00000E+00      -1.15403E+02       0.00000E+00      -1.27850E+07       0.00000E+00       0.00000E+00       2.87115E+06       0.00000E+00       1.27828E+07       0.00000E+00       5.13160E+03      -8.03250E+00       0.00000E+00       1.14628E+06       0.00000E+00      -1.66560E+03       0.00000E+00       0.00000E+00       1.26800E+07       0.00000E+00       5.16400E+08       0.00000E+00       3.13109E+04      -1.26815E+07       0.00000E+00      -3.22937E+02       0.00000E+00       5.16369E+08       0.00000E+00       0.00000E+00       2.43212E+03       0.00000E+00       5.14554E+04       0.00000E+00       6.23487E+09
         49   0.49000E+00       2.81746E+06       0.00000E+00      -1.22224E+02       0.00000E+00      -1.26601E+07       0.00000E+00       0.00000E+00       2.81745E+06       0.00000E+00       1.26576E+07       0.00000E+00       5.44640E+03      -7.67668E+00       0.00000E+00       1.14097E+06       0.00000E+00      -1.70620E+03       0.00000E+00       0.00000E+00       1.25480E+07       0.00000E+00       5.13888E+08       0.00000E+00       3.35863E+04      -1.25495E+07       0.00000E+00      -2.45939E+02       0.00000E+00       5.13857E+08       0.00000E+00       0.00000E+00       2.55462E+03       0.00000E+00       5.47144E+04       0.00000E+00       6.11953E+09
         50   0.50000E+00       2.76336E+06       0.00000E+00      -1.28844E+02       0.00000E+00      -1.25333E+07       0.00000E+00       0.00000E+00       2.76333E+06       0.00000E+00       1.25308E+07       0.00000E+00       5.75267E+03      -7.33079E+00       0.00000E+00       1.13558E+06       0.00000E+00      -1.74550E+03       0.00000E+00       0.00000E+00       1.24144E+07       0.00000E+00       5.11332E+08       0.00000E+00       3.57977E+04      -1.24160E+07       0.00000E+00      -1.70365E+02       0.00000E+00       5.11301E+08       0.00000E+00       0.00000E+00       2.67385E+03       0.00000E+00       5.78764E+04       0.00000E+00       6.00327E+09
         51   0.51000E+00       2.70889E+06       0.00000E+00      -1.35248E+02       0.00000E+00      -1.24050E+07       0.00000E+00       0.00000E+00       2.70886E+06       0.00000E+00       1.24022E+07       0.00000E+00       6.04979E+03      -6.99538E+00       0.00000E+00       1.13012E+06       0.00000E+00      -1.78340E+03       0.00000E+00       0.00000E+00       1.22793E+07       0.00000E+00       5.08734E+08       0.00000E+00       3.79410E+04      -1.22810E+07       0.00000E+00      -9.63409E+01       0.00000E+00       5.08702E+08       0.00000E+00       0.00000E+00       2.78959E+03       0.00000E+00       6.09352E+04       0.00000E+00       5.88618E+09
         52   0.52000E+00       2.65408E+06       0.00000E+00      -1.41425E+02       0.00000E+00      -1.22749E+07       0.00000E+00       0.00000E+00       2.65404E+06       0.00000E+00       1.22720E+07       0.00000E+00       6.33721E+03      -6.67108E+00       0.00000E+00       1.12459E+06       0.00000E+00      -1.81982E+03       0.00000E+00       0.00000E+00       1.21427E+07       0.00000E+00       5.06092E+08       0.00000E+00       4.00120E+04      -1.21445E+07       0.00000E+00      -2.39849E+01       0.00000E+00       5.06060E+08       0.00000E+00       0.00000E+00       2.90162E+03       0.00000E+00       6.38847E+04       0.00000E+00       5.76833E+09
         53   0.53000E+00       2.59898E+06       0.00000E+00      -1.47361E+02       0.00000E+00      -1.21432E+07       0.00000E+00       0.00000E+00       2.59893E+06       0.00000E+00       1.21402E+07       0.00000E+00       6.61437E+03      -6.35837E+00       0.00000E+00       1.11899E+06       0.00000E+00      -1.85469E+03       0.00000E+00       0.00000E+00       1.20048E+07       0.00000E+00       5.03409E+08       0.00000E+00       4.20067E+04      -1.20066E+07       0.00000E+00       4.65826E+01       0.00000E+00       5.03376E+08       0.00000E+00       0.00000E+00       3.00971E+03       0.00000E+00       6.67191E+04       0.00000E+00       5.64978E+09
         54   0.54000E+00       2.54361E+06       0.00000E+00      -1.53045E+02       0.00000E+00      -1.20100E+07       0.00000E+00       0.00000E+00       2.54355E+06       0.00000E+00       1.20069E+07       0.00000E+00       6.88075E+03      -6.05784E+00       0.00000E+00       1.11331E+06       0.00000E+00      -1.88794E+03       0.00000E+00       0.00000E+00       1.18655E+07       0.00000E+00       5.00683E+08       0.00000E+00       4.39214E+04      -1.18674E+07       0.00000E+00       1.15249E+02       0.00000E+00       5.00651E+08       0.00000E+00       0.00000E+00       3.11368E+03       0.00000E+00       6.94326E+04       0.00000E+00       5.53061E+09
         55   0.55000E+00       2.48800E+06       0.00000E+00      -1.58466E+02       0.00000E+00      -1.18753E+07       0.00000E+00       0.00000E+00       2.48794E+06       0.00000E+00       1.18720E+07       0.00000E+00       7.13581E+03      -5.76990E+00       0.00000E+00       1.10757E+06       0.00000E+00      -1.91949E+03       0.00000E+00       0.00000E+00       1.17250E+07       0.00000E+00       4.97916E+08       0.00000E+00       4.57522E+04      -1.17269E+07       0.00000E+00       1.81902E+02       0.00000E+00       4.97884E+08       0.00000E+00       0.00000E+00       3.21330E+03       0.00000E+00       7.20199E+04       0.00000E+00       5.41088E+09
         56   0.56000E+00       2.43219E+06       0.00000E+00      -1.63612E+02       0.00000E+00      -1.17391E+07       0.00000E+00       0.00000E+00       2.43212E+06       0.00000E+00       1.17357E+07       0.00000E+00       7.37910E+03      -5.49509E+00       0.00000E+00       1.10176E+06       0.00000E+00      -1.94928E+03       0.00000E+00       0.00000E+00       1.15832E+07       0.00000E+00       4.95108E+08       0.00000E+00       4.74958E+04      -1.15852E+07       0.00000E+00       2.46434E+02       0.00000E+00       4.95076E+08       0.00000E+00       0.00000E+00       3.30841E+03       0.00000E+00       7.44757E+04       0.00000E+00       5.29066E+09
         57   0.57000E+00       2.37621E+06       0.00000E+00      -1.68473E+02       0.00000E+00      -1.16015E+07       0.00000E+00       0.00000E+00       2.37613E+06       0.00000E+00       1.15980E+07       0.00000E+00       7.61011E+03      -5.23377E+00       0.00000E+00       1.09588E+06       0.00000E+00      -1.97724E+03       0.00000E+00       0.00000E+00       1.14403E+07       0.00000E+00       4.92260E+08       0.00000E+00       4.91487E+04      -1.14424E+07       0.00000E+00       3.08741E+02       0.00000E+00       4.92227E+08       0.00000E+00       0.00000E+00       3.39881E+03       0.00000E+00       7.67952E+04       0.00000E+00       5.17003E+09
         58   0.58000E+00       2.32009E+06       0.00000E+00      -1.73040E+02       0.00000E+00      -1.14626E+07       0.00000E+00       0.00000E+00       2.32001E+06       0.00000E+00       1.14589E+07       0.00000E+00       7.82842E+03      -4.98639E+00       0.00000E+00       1.08993E+06       0.00000E+00      -2.00330E+03       0.00000E+00       0.00000E+00       1.12963E+07       0.00000E+00       4.89371E+08       0.00000E+00       5.07079E+04      -1.12985E+07       0.00000E+00       3.68724E+02       0.00000E+00       4.89339E+08       0.00000E+00       0.00000E+00       3.48432E+03       0.00000E+00       7.89737E+04       0.00000E+00       5.04903E+09
         59   0.59000E+00       2.26386E+06       0.00000E+00      -1.77302E+02       0.00000E+00      -1.13223E+07       0.00000E+00       0.00000E+00       2.26378E+06       0.00000E+00       1.13185E+07       0.00000E+00       8.03359E+03      -4.75326E+00       0.00000E+00       1.08392E+06       0.00000E+00      -2.02742E+03       0.00000E+00       0.00000E+00       1.11513E+07       0.00000E+00       4.86443E+08       0.00000E+00       5.21702E+04      -1.11535E+07       0.00000E+00       4.26286E+02       0.00000E+00       4.86411E+08       0.00000E+00       0.00000E+00       3.56479E+03       0.00000E+00       8.10067E+04       0.00000E+00       4.92776E+09
         60   0.60000E+00       2.20756E+06       0.00000E+00      -1.81251E+02       0.00000E+00      -1.11807E+07       0.00000E+00       0.00000E+00       2.20747E+06       0.00000E+00       1.11769E+07       0.00000E+00       8.22525E+03      -4.53477E+00       0.00000E+00       1.07785E+06       0.00000E+00      -2.04953E+03       0.00000E+00       0.00000E+00       1.10053E+07       0.00000E+00       4.83476E+08       0.00000E+00       5.35330E+04      -1.10075E+07       0.00000E+00       4.81337E+02       0.00000E+00       4.83444E+08       0.00000E+00       0.00000E+00       3.64005E+03       0.00000E+00       8.28902E+04       0.00000E+00       4.80626E+09
         61   0.61000E+00       2.15122E+06       0.00000E+00      -1.84879E+02       0.00000E+00      -1.10380E+07       0.00000E+00       0.00000E+00       2.15112E+06       0.00000E+00       1.10340E+07       0.00000E+00       8.40298E+03      -4.33114E+00       0.00000E+00       1.07172E+06       0.00000E+00      -2.06959E+03       0.00000E+00       0.00000E+00       1.08584E+07       0.00000E+00       4.80471E+08       0.00000E+00       5.47935E+04      -1.08606E+07       0.00000E+00       5.33788E+02       0.00000E+00       4.80438E+08       0.00000E+00       0.00000E+00       3.70997E+03       0.00000E+00       8.46202E+04       0.00000E+00       4.68460E+09
         62   0.62000E+00       2.09485E+06       0.00000E+00      -1.88179E+02       0.00000E+00      -1.08940E+07       0.00000E+00       0.00000E+00       2.09475E+06       0.00000E+00       1.08899E+07       0.00000E+00       8.56648E+03      -4.14272E+00       0.00000E+00       1.06552E+06       0.00000E+00      -2.08755E+03       0.00000E+00       0.00000E+00       1.07105E+07       0.00000E+00       4.77426E+08       0.00000E+00       5.59495E+04      -1.07129E+07       0.00000E+00       5.83558E+02       0.00000E+00       4.77394E+08       0.00000E+00       0.00000E+00       3.77439E+03       0.00000E+00       8.61934E+04       0.00000E+00       4.56285E+09
         63   0.63000E+00       2.03850E+06       0.00000E+00      -1.91143E+02       0.00000E+00      -1.07489E+07       0.00000E+00       0.00000E+00       2.03840E+06       0.00000E+00       1.07448E+07       0.00000E+00       8.71539E+03      -3.96965E+00       0.00000E+00       1.05926E+06       0.00000E+00      -2.10337E+03       0.00000E+00       0.00000E+00       1.05619E+07       0.00000E+00       4.74345E+08       0.00000E+00       5.69985E+04      -1.05643E+07       0.00000E+00       6.30569E+02       0.00000E+00       4.74312E+08       0.00000E+00       0.00000E+00       3.83321E+03       0.00000E+00       8.76063E+04       0.00000E+00       4.44107E+09
         64   0.64000E+00       1.98220E+06       0.00000E+00      -1.93765E+02       0.00000E+00      -1.06027E+07       0.00000E+00       0.00000E+00       1.98208E+06       0.00000E+00       1.05985E+07       0.00000E+00       8.84944E+03      -3.81219E+00       0.00000E+00       1.05295E+06       0.00000E+00      -2.11700E+03       0.00000E+00       0.00000E+00       1.04125E+07       0.00000E+00       4.71225E+08       0.00000E+00       5.79387E+04      -1.04149E+07       0.00000E+00       6.74749E+02       0.00000E+00       4.71193E+08       0.00000E+00       0.00000E+00       3.88629E+03       0.00000E+00       8.88561E+04       0.00000E+00       4.31931E+09
         65   0.65000E+00       1.92596E+06       0.00000E+00      -1.96039E+02       0.00000E+00      -1.04555E+07       0.00000E+00       0.00000E+00       1.92585E+06       0.00000E+00       1.04512E+07       0.00000E+00       8.96835E+03      -3.67042E+00       0.00000E+00       1.04658E+06       0.00000E+00      -2.12842E+03       0.00000E+00       0.00000E+00       1.02624E+07       0.00000E+00       4.68069E+08       0.00000E+00       5.87683E+04      -1.02648E+07       0.00000E+00       7.16028E+02       0.00000E+00       4.68037E+08       0.00000E+00       0.00000E+00       3.93354E+03       0.00000E+00       8.99401E+04       0.00000E+00       4.19765E+09
         66   0.66000E+00       1.86983E+06       0.00000E+00      -1.97960E+02       0.00000E+00      -1.03073E+07       0.00000E+00       0.00000E+00       1.86970E+06       0.00000E+00       1.03030E+07       0.00000E+00       9.07189E+03      -3.54455E+00       0.00000E+00       1.04014E+06       0.00000E+00      -2.13758E+03       0.00000E+00       0.00000E+00       1.01116E+07       0.00000E+00       4.64876E+08       0.00000E+00       5.94856E+04      -1.01141E+07       0.00000E+00       7.54346E+02       0.00000E+00       4.64844E+08       0.00000E+00       0.00000E+00       3.97486E+03       0.00000E+00       9.08561E+04       0.00000E+00       4.07614E+09
         67   0.67000E+00       1.81382E+06       0.00000E+00      -1.99525E+02       0.00000E+00      -1.01582E+07       0.00000E+00       0.00000E+00       1.81369E+06       0.00000E+00       1.01538E+07       0.00000E+00       9.15985E+03      -3.43455E+00       0.00000E+00       1.03366E+06       0.00000E+00      -2.14448E+03       0.00000E+00       0.00000E+00       9.96029E+06       0.00000E+00       4.61648E+08       0.00000E+00       6.00892E+04      -9.96277E+06       0.00000E+00       7.89644E+02       0.00000E+00       4.61616E+08       0.00000E+00       0.00000E+00       4.01016E+03       0.00000E+00       9.16020E+04       0.00000E+00       3.95483E+09
         68   0.68000E+00       1.75796E+06       0.00000E+00      -2.00728E+02       0.00000E+00      -1.00081E+07       0.00000E+00       0.00000E+00       1.75783E+06       0.00000E+00       1.00037E+07       0.00000E+00       9.23205E+03      -3.34058E+00       0.00000E+00       1.02711E+06       0.00000E+00      -2.14907E+03       0.00000E+00       0.00000E+00       9.80836E+06       0.00000E+00       4.58384E+08       0.00000E+00       6.05781E+04      -9.81087E+06       0.00000E+00       8.21870E+02       0.00000E+00       4.58352E+08       0.00000E+00       0.00000E+00       4.03937E+03       0.00000E+00       9.21762E+04       0.00000E+00       3.83379E+09
         69   0.69000E+00       1.70228E+06       0.00000E+00      -2.01568E+02       0.00000E+00      -9.85728E+06       0.00000E+00       0.00000E+00       1.70215E+06       0.00000E+00       9.85279E+06       0.00000E+00       9.28832E+03      -3.26253E+00       0.00000E+00       1.02052E+06       0.00000E+00      -2.15135E+03       0.00000E+00       0.00000E+00       9.65596E+06       0.00000E+00       4.55085E+08       0.00000E+00       6.09513E+04      -9.65848E+06       0.00000E+00       8.50978E+02       0.00000E+00       4.55053E+08       0.00000E+00       0.00000E+00       4.06243E+03       0.00000E+00       9.25773E+04       0.00000E+00       3.71307E+09
         70   0.70000E+00       1.64681E+06       0.00000E+00      -2.02042E+02       0.00000E+00      -9.70560E+06       0.00000E+00       0.00000E+00       1.64667E+06       0.00000E+00       9.70108E+06       0.00000E+00       9.32857E+03      -3.20048E+00       0.00000E+00       1.01386E+06       0.00000E+00      -2.15130E+03       0.00000E+00       0.00000E+00       9.50308E+06       0.00000E+00       4.51751E+08       0.00000E+00       6.12081E+04      -9.50562E+06       0.00000E+00       8.76926E+02       0.00000E+00       4.51719E+08       0.00000E+00       0.00000E+00       4.07929E+03       0.00000E+00       9.28043E+04       0.00000E+00       3.59271E+09
         71   0.71000E+00       1.59156E+06       0.00000E+00      -2.02148E+02       0.00000E+00      -9.55319E+06       0.00000E+00       0.00000E+00       1.59143E+06       0.00000E+00       9.54865E+06       0.00000E+00       9.35268E+03      -3.15427E+00       0.00000E+00       1.00716E+06       0.00000E+00      -2.14891E+03       0.00000E+00       0.00000E+00       9.34982E+06       0.00000E+00       4.48383E+08       0.00000E+00       6.13479E+04      -9.35237E+06       0.00000E+00       8.99679E+02       0.00000E+00       4.48351E+08       0.00000E+00       0.00000E+00       4.08991E+03       0.00000E+00       9.28566E+04       0.00000E+00       3.47278E+09
         72   0.72000E+00       1.53657E+06       0.00000E+00      -2.01886E+02       0.00000E+00      -9.40007E+06       0.00000E+00       0.00000E+00       1.53643E+06       0.00000E+00       9.39550E+06       0.00000E+00       9.36061E+03      -3.12387E+00       0.00000E+00       1.00040E+06       0.00000E+00      -2.14418E+03       0.00000E+00       0.00000E+00       9.19618E+06       0.00000E+00       4.44981E+08       0.00000E+00       6.13706E+04      -9.19874E+06       0.00000E+00       9.19207E+02       0.00000E+00       4.44949E+08       0.00000E+00       0.00000E+00       4.09426E+03       0.00000E+00       9.27339E+04       0.00000E+00       3.35333E+09
         73   0.73000E+00       1.48185E+06       0.00000E+00      -2.01254E+02       0.00000E+00      -9.24630E+06       0.00000E+00       0.00000E+00       1.48171E+06       0.00000E+00       9.24173E+06       0.00000E+00       9.35232E+03      -3.10907E+00       0.00000E+00       9.93588E+05       0.00000E+00      -2.13710E+03       0.00000E+00       0.00000E+00       9.04227E+06       0.00000E+00       4.41546E+08       0.00000E+00       6.12761E+04      -9.04482E+06       0.00000E+00       9.35486E+02       0.00000E+00       4.41514E+08       0.00000E+00       0.00000E+00       4.09232E+03       0.00000E+00       9.24360E+04       0.00000E+00       3.23440E+09
         74   0.74000E+00       1.42743E+06       0.00000E+00      -2.00254E+02       0.00000E+00      -9.09191E+06       0.00000E+00       0.00000E+00       1.42728E+06       0.00000E+00       9.08733E+06       0.00000E+00       9.32780E+03      -3.10978E+00       0.00000E+00       9.86723E+05       0.00000E+00      -2.12768E+03       0.00000E+00       0.00000E+00       8.88807E+06       0.00000E+00       4.38077E+08       0.00000E+00       6.10646E+04      -8.89063E+06       0.00000E+00       9.48497E+02       0.00000E+00       4.38046E+08       0.00000E+00       0.00000E+00       4.08409E+03       0.00000E+00       9.19635E+04       0.00000E+00       3.11604E+09
         75   0.75000E+00       1.37332E+06       0.00000E+00      -1.98887E+02       0.00000E+00      -8.93698E+06       0.00000E+00       0.00000E+00       1.37318E+06       0.00000E+00       8.93240E+06       0.00000E+00       9.28709E+03      -3.12570E+00       0.00000E+00       9.79810E+05       0.00000E+00      -2.11593E+03       0.00000E+00       0.00000E+00       8.73368E+06       0.00000E+00       4.34577E+08       0.00000E+00       6.07365E+04      -8.73623E+06       0.00000E+00       9.58227E+02       0.00000E+00       4.34546E+08       0.00000E+00       0.00000E+00       4.06957E+03       0.00000E+00       9.13169E+04       0.00000E+00       2.99831E+09
         76   0.76000E+00       1.31956E+06       0.00000E+00      -1.97154E+02       0.00000E+00      -8.78151E+06       0.00000E+00       0.00000E+00       1.31941E+06       0.00000E+00       8.77695E+06       0.00000E+00       9.23024E+03      -3.15668E+00       0.00000E+00       9.72843E+05       0.00000E+00      -2.10186E+03       0.00000E+00       0.00000E+00       8.57910E+06       0.00000E+00       4.31044E+08       0.00000E+00       6.02924E+04      -8.58165E+06       0.00000E+00       9.64669E+02       0.00000E+00       4.31013E+08       0.00000E+00       0.00000E+00       4.04879E+03       0.00000E+00       9.04972E+04       0.00000E+00       2.88124E+09
         77   0.77000E+00       1.26616E+06       0.00000E+00      -1.95059E+02       0.00000E+00      -8.62559E+06       0.00000E+00       0.00000E+00       1.26601E+06       0.00000E+00       8.62105E+06       0.00000E+00       9.15734E+03      -3.20234E+00       0.00000E+00       9.65828E+05       0.00000E+00      -2.08548E+03       0.00000E+00       0.00000E+00       8.42442E+06       0.00000E+00       4.27481E+08       0.00000E+00       5.97332E+04      -8.42695E+06       0.00000E+00       9.67822E+02       0.00000E+00       4.27450E+08       0.00000E+00       0.00000E+00       4.02177E+03       0.00000E+00       8.95059E+04       0.00000E+00       2.76488E+09
         78   0.78000E+00       1.21313E+06       0.00000E+00      -1.92604E+02       0.00000E+00      -8.46922E+06       0.00000E+00       0.00000E+00       1.21298E+06       0.00000E+00       8.46471E+06       0.00000E+00       9.06853E+03      -3.26246E+00       0.00000E+00       9.58761E+05       0.00000E+00      -2.06681E+03       0.00000E+00       0.00000E+00       8.26963E+06       0.00000E+00       4.23885E+08       0.00000E+00       5.90600E+04      -8.27215E+06       0.00000E+00       9.67691E+02       0.00000E+00       4.23854E+08       0.00000E+00       0.00000E+00       3.98855E+03       0.00000E+00       8.83445E+04       0.00000E+00       2.64926E+09
         79   0.79000E+00       1.16051E+06       0.00000E+00      -1.89793E+02       0.00000E+00      -8.31250E+06       0.00000E+00       0.00000E+00       1.16036E+06       0.00000E+00       8.30802E+06       0.00000E+00       8.96393E+03      -3.33660E+00       0.00000E+00       9.51646E+05       0.00000E+00      -2.04589E+03       0.00000E+00       0.00000E+00       8.11484E+06       0.00000E+00       4.20259E+08       0.00000E+00       5.82741E+04      -8.11733E+06       0.00000E+00       9.64286E+02       0.00000E+00       4.20229E+08       0.00000E+00       0.00000E+00       3.94918E+03       0.00000E+00       8.70151E+04       0.00000E+00       2.53444E+09
         80   0.80000E+00       1.10830E+06       0.00000E+00      -1.86631E+02       0.00000E+00      -8.15542E+06       0.00000E+00       0.00000E+00       1.10815E+06       0.00000E+00       8.15099E+06       0.00000E+00       8.84373E+03      -3.42449E+00       0.00000E+00       9.44479E+05       0.00000E+00      -2.02274E+03       0.00000E+00       0.00000E+00       7.96001E+06       0.00000E+00       4.16602E+08       0.00000E+00       5.73770E+04      -7.96249E+06       0.00000E+00       9.57623E+02       0.00000E+00       4.16572E+08       0.00000E+00       0.00000E+00       3.90373E+03       0.00000E+00       8.55200E+04       0.00000E+00       2.42043E+09
         81   0.81000E+00       1.05652E+06       0.00000E+00      -1.83123E+02       0.00000E+00      -7.99808E+06       0.00000E+00       0.00000E+00       1.05637E+06       0.00000E+00       7.99369E+06       0.00000E+00       8.70814E+03      -3.52562E+00       0.00000E+00       9.37266E+05       0.00000E+00      -1.99739E+03       0.00000E+00       0.00000E+00       7.80526E+06       0.00000E+00       4.12917E+08       0.00000E+00       5.63706E+04      -7.80770E+06       0.00000E+00       9.47724E+02       0.00000E+00       4.12887E+08       0.00000E+00       0.00000E+00       3.85228E+03       0.00000E+00       8.38619E+04       0.00000E+00       2.30730E+09
         82   0.82000E+00       1.00519E+06       0.00000E+00      -1.79275E+02       0.00000E+00      -7.84047E+06       0.00000E+00       0.00000E+00       1.00504E+06       0.00000E+00       7.83613E+06       0.00000E+00       8.55740E+03      -3.63965E+00       0.00000E+00       9.30001E+05       0.00000E+00      -1.96988E+03       0.00000E+00       0.00000E+00       7.65056E+06       0.00000E+00       4.09200E+08       0.00000E+00       5.52565E+04      -7.65298E+06       0.00000E+00       9.34618E+02       0.00000E+00       4.09171E+08       0.00000E+00       0.00000E+00       3.79490E+03       0.00000E+00       8.20437E+04       0.00000E+00       2.19506E+09
         83   0.83000E+00       9.54319E+05       0.00000E+00      -1.75094E+02       0.00000E+00      -7.68267E+06       0.00000E+00       0.00000E+00       9.54175E+05       0.00000E+00       7.67840E+06       0.00000E+00       8.39176E+03      -3.76601E+00       0.00000E+00       9.22690E+05       0.00000E+00      -1.94025E+03       0.00000E+00       0.00000E+00       7.49601E+06       0.00000E+00       4.05456E+08       0.00000E+00       5.40372E+04      -7.49839E+06       0.00000E+00       9.18336E+02       0.00000E+00       4.05427E+08       0.00000E+00       0.00000E+00       3.73169E+03       0.00000E+00       8.00686E+04       0.00000E+00       2.08377E+09
         84   0.84000E+00       9.03927E+05       0.00000E+00      -1.70586E+02       0.00000E+00      -7.52470E+06       0.00000E+00       0.00000E+00       9.03781E+05       0.00000E+00       7.52050E+06       0.00000E+00       8.21153E+03      -3.90431E+00       0.00000E+00       9.15327E+05       0.00000E+00      -1.90855E+03       0.00000E+00       0.00000E+00       7.34158E+06       0.00000E+00       4.01682E+08       0.00000E+00       5.27148E+04      -7.34393E+06       0.00000E+00       8.98917E+02       0.00000E+00       4.01653E+08       0.00000E+00       0.00000E+00       3.66276E+03       0.00000E+00       7.79402E+04       0.00000E+00       1.97342E+09
         85   0.85000E+00       8.54028E+05       0.00000E+00      -1.65761E+02       0.00000E+00      -7.36663E+06       0.00000E+00       0.00000E+00       8.53887E+05       0.00000E+00       7.36251E+06       0.00000E+00       8.01702E+03      -4.05392E+00       0.00000E+00       9.07919E+05       0.00000E+00      -1.87483E+03       0.00000E+00       0.00000E+00       7.18739E+06       0.00000E+00       3.97881E+08       0.00000E+00       5.12920E+04      -7.18968E+06       0.00000E+00       8.76407E+02       0.00000E+00       3.97853E+08       0.00000E+00       0.00000E+00       3.58823E+03       0.00000E+00       7.56625E+04       0.00000E+00       1.86408E+09
         86   0.86000E+00       8.04630E+05       0.00000E+00      -1.60625E+02       0.00000E+00      -7.20847E+06       0.00000E+00       0.00000E+00       8.04488E+05       0.00000E+00       7.20443E+06       0.00000E+00       7.80857E+03      -4.21440E+00       0.00000E+00       9.00459E+05       0.00000E+00      -1.83912E+03       0.00000E+00       0.00000E+00       7.03338E+06       0.00000E+00       3.94051E+08       0.00000E+00       4.97715E+04      -7.03564E+06       0.00000E+00       8.50855E+02       0.00000E+00       3.94023E+08       0.00000E+00       0.00000E+00       3.50822E+03       0.00000E+00       7.32396E+04       0.00000E+00       1.75575E+09
         87   0.87000E+00       7.55751E+05       0.00000E+00      -1.55188E+02       0.00000E+00      -7.05029E+06       0.00000E+00       0.00000E+00       7.55614E+05       0.00000E+00       7.04635E+06       0.00000E+00       7.58656E+03      -4.38508E+00       0.00000E+00       8.92954E+05       0.00000E+00      -1.80151E+03       0.00000E+00       0.00000E+00       6.87967E+06       0.00000E+00       3.90195E+08       0.00000E+00       4.81563E+04      -6.88188E+06       0.00000E+00       8.22317E+02       0.00000E+00       3.90167E+08       0.00000E+00       0.00000E+00       3.42288E+03       0.00000E+00       7.06759E+04       0.00000E+00       1.64848E+09
         88   0.88000E+00       7.07395E+05       0.00000E+00      -1.49460E+02       0.00000E+00      -6.89211E+06       0.00000E+00       0.00000E+00       7.07258E+05       0.00000E+00       6.88825E+06       0.00000E+00       7.35140E+03      -4.56546E+00       0.00000E+00       8.85397E+05       0.00000E+00      -1.76204E+03       0.00000E+00       0.00000E+00       6.72622E+06       0.00000E+00       3.86311E+08       0.00000E+00       4.64495E+04      -6.72839E+06       0.00000E+00       7.90852E+02       0.00000E+00       3.86283E+08       0.00000E+00       0.00000E+00       3.33234E+03       0.00000E+00       6.79760E+04       0.00000E+00       1.54228E+09
         89   0.89000E+00       6.59580E+05       0.00000E+00      -1.43450E+02       0.00000E+00      -6.73399E+06       0.00000E+00       0.00000E+00       6.59448E+05       0.00000E+00       6.73024E+06       0.00000E+00       7.10349E+03      -4.75482E+00       0.00000E+00       8.77795E+05       0.00000E+00      -1.72078E+03       0.00000E+00       0.00000E+00       6.57314E+06       0.00000E+00       3.82401E+08       0.00000E+00       4.46544E+04      -6.57524E+06       0.00000E+00       7.56527E+02       0.00000E+00       3.82374E+08       0.00000E+00       0.00000E+00       3.23677E+03       0.00000E+00       6.51451E+04       0.00000E+00       1.43718E+09
         90   0.90000E+00       6.12307E+05       0.00000E+00      -1.37170E+02       0.00000E+00      -6.57594E+06       0.00000E+00       0.00000E+00       6.12176E+05       0.00000E+00       6.57230E+06       0.00000E+00       6.84328E+03      -4.95264E+00       0.00000E+00       8.70141E+05       0.00000E+00      -1.67779E+03       0.00000E+00       0.00000E+00       6.42037E+06       0.00000E+00       3.78464E+08       0.00000E+00       4.27744E+04      -6.42243E+06       0.00000E+00       7.19411E+02       0.00000E+00       3.78438E+08       0.00000E+00       0.00000E+00       3.13633E+03       0.00000E+00       6.21883E+04       0.00000E+00       1.33319E+09
         91   0.91000E+00       5.65593E+05       0.00000E+00      -1.30631E+02       0.00000E+00      -6.41805E+06       0.00000E+00       0.00000E+00       5.65468E+05       0.00000E+00       6.41452E+06       0.00000E+00       6.57126E+03      -5.15815E+00       0.00000E+00       8.62442E+05       0.00000E+00      -1.63314E+03       0.00000E+00       0.00000E+00       6.26803E+06       0.00000E+00       3.74503E+08       0.00000E+00       4.08131E+04      -6.27002E+06       0.00000E+00       6.79582E+02       0.00000E+00       3.74477E+08       0.00000E+00       0.00000E+00       3.03119E+03       0.00000E+00       5.91111E+04       0.00000E+00       1.23035E+09
         92   0.92000E+00       5.19439E+05       0.00000E+00      -1.23844E+02       0.00000E+00      -6.26030E+06       0.00000E+00       0.00000E+00       5.19314E+05       0.00000E+00       6.25689E+06       0.00000E+00       6.28790E+03      -5.37077E+00       0.00000E+00       8.54691E+05       0.00000E+00      -1.58691E+03       0.00000E+00       0.00000E+00       6.11607E+06       0.00000E+00       3.70514E+08       0.00000E+00       3.87745E+04      -6.11800E+06       0.00000E+00       6.37119E+02       0.00000E+00       3.70489E+08       0.00000E+00       0.00000E+00       2.92154E+03       0.00000E+00       5.59191E+04       0.00000E+00       1.12865E+09
         93   0.93000E+00       4.73857E+05       0.00000E+00      -1.16822E+02       0.00000E+00      -6.10278E+06       0.00000E+00       0.00000E+00       4.73739E+05       0.00000E+00       6.09950E+06       0.00000E+00       5.99371E+03      -5.58974E+00       0.00000E+00       8.46895E+05       0.00000E+00      -1.53917E+03       0.00000E+00       0.00000E+00       5.96459E+06       0.00000E+00       3.66503E+08       0.00000E+00       3.66624E+04      -5.96645E+06       0.00000E+00       5.92108E+02       0.00000E+00       3.66478E+08       0.00000E+00       0.00000E+00       2.80757E+03       0.00000E+00       5.26185E+04       0.00000E+00       1.02814E+09
         94   0.94000E+00       4.28849E+05       0.00000E+00      -1.09576E+02       0.00000E+00      -5.94548E+06       0.00000E+00       0.00000E+00       4.28732E+05       0.00000E+00       5.94233E+06       0.00000E+00       5.68925E+03      -5.81444E+00       0.00000E+00       8.39046E+05       0.00000E+00      -1.49000E+03       0.00000E+00       0.00000E+00       5.81354E+06       0.00000E+00       3.62465E+08       0.00000E+00       3.44808E+04      -5.81534E+06       0.00000E+00       5.44638E+02       0.00000E+00       3.62440E+08       0.00000E+00       0.00000E+00       2.68947E+03       0.00000E+00       4.92151E+04       0.00000E+00       9.28807E+08
         95   0.95000E+00       3.84426E+05       0.00000E+00      -1.02121E+02       0.00000E+00      -5.78849E+06       0.00000E+00       0.00000E+00       3.84316E+05       0.00000E+00       5.78547E+06       0.00000E+00       5.37504E+03      -6.04405E+00       0.00000E+00       8.31152E+05       0.00000E+00      -1.43948E+03       0.00000E+00       0.00000E+00       5.66304E+06       0.00000E+00       3.58405E+08       0.00000E+00       3.22341E+04      -5.66475E+06       0.00000E+00       4.94803E+02       0.00000E+00       3.58380E+08       0.00000E+00       0.00000E+00       2.56746E+03       0.00000E+00       4.57156E+04       0.00000E+00       8.30686E+08
         96   0.96000E+00       3.40586E+05       0.00000E+00      -9.44694E+01       0.00000E+00      -5.63179E+06       0.00000E+00       0.00000E+00       3.40477E+05       0.00000E+00       5.62891E+06       0.00000E+00       5.05167E+03      -6.27795E+00       0.00000E+00       8.23205E+05       0.00000E+00      -1.38769E+03       0.00000E+00       0.00000E+00       5.51300E+06       0.00000E+00       3.54319E+08       0.00000E+00       2.99265E+04      -5.51466E+06       0.00000E+00       4.42702E+02       0.00000E+00       3.54295E+08       0.00000E+00       0.00000E+00       2.44175E+03       0.00000E+00       4.21262E+04       0.00000E+00       7.33765E+08
         97   0.97000E+00       2.97340E+05       0.00000E+00      -8.66354E+01       0.00000E+00      -5.47548E+06       0.00000E+00       0.00000E+00       2.97239E+05       0.00000E+00       5.47274E+06       0.00000E+00       4.71972E+03      -6.51532E+00       0.00000E+00       8.15213E+05       0.00000E+00      -1.33473E+03       0.00000E+00       0.00000E+00       5.36356E+06       0.00000E+00       3.50212E+08       0.00000E+00       2.75626E+04      -5.36513E+06       0.00000E+00       3.88436E+02       0.00000E+00       3.50188E+08       0.00000E+00       0.00000E+00       2.31255E+03       0.00000E+00       3.84539E+04       0.00000E+00       6.38083E+08
         98   0.98000E+00       2.54685E+05       0.00000E+00      -7.86329E+01       0.00000E+00      -5.31952E+06       0.00000E+00       0.00000E+00       2.54585E+05       0.00000E+00       5.31693E+06       0.00000E+00       4.37980E+03      -6.75549E+00       0.00000E+00       8.07168E+05       0.00000E+00      -1.28066E+03       0.00000E+00       0.00000E+00       5.21464E+06       0.00000E+00       3.46079E+08       0.00000E+00       2.51468E+04      -5.21614E+06       0.00000E+00       3.32112E+02       0.00000E+00       3.46057E+08       0.00000E+00       0.00000E+00       2.18009E+03       0.00000E+00       3.47054E+04       0.00000E+00       5.43618E+08
         99   0.99000E+00       2.12629E+05       0.00000E+00      -7.04767E+01       0.00000E+00      -5.16402E+06       0.00000E+00       0.00000E+00       2.12538E+05       0.00000E+00       5.16158E+06       0.00000E+00       4.03252E+03      -6.99763E+00       0.00000E+00       7.99077E+05       0.00000E+00      -1.22559E+03       0.00000E+00       0.00000E+00       5.06635E+06       0.00000E+00       3.41926E+08       0.00000E+00       2.26839E+04      -5.06777E+06       0.00000E+00       2.73840E+02       0.00000E+00       3.41904E+08       0.00000E+00       0.00000E+00       2.04462E+03       0.00000E+00       3.08878E+04       0.00000E+00       4.50408E+08
        100   0.10000E+01       1.71169E+05       0.00000E+00      -6.21813E+01       0.00000E+00      -5.00895E+06       0.00000E+00       0.00000E+00       1.71079E+05       0.00000E+00       5.00666E+06       0.00000E+00       3.67852E+03      -7.24108E+00       0.00000E+00       7.90932E+05       0.00000E+00      -1.16961E+03       0.00000E+00       0.00000E+00       4.91863E+06       0.00000E+00       3.37750E+08       0.00000E+00       2.01786E+04      -4.91998E+06       0.00000E+00       2.13732E+02       0.00000E+00       3.37728E+08       0.00000E+00       0.00000E+00       1.90634E+03       0.00000E+00       2.70081E+04       0.00000E+00       3.58429E+08
        101   0.10100E+01       1.30312E+05       0.00000E+00      -5.37621E+01       0.00000E+00      -4.85439E+06       0.00000E+00       0.00000E+00       1.30231E+05       0.00000E+00       4.85227E+06       0.00000E+00       3.31844E+03      -7.48500E+00       0.00000E+00       7.82741E+05       0.00000E+00      -1.11281E+03       0.00000E+00       0.00000E+00       4.77158E+06       0.00000E+00       3.33553E+08       0.00000E+00       1.76358E+04      -4.77284E+06       0.00000E+00       1.51907E+02       0.00000E+00       3.33531E+08       0.00000E+00       0.00000E+00       1.76553E+03       0.00000E+00       2.30739E+04       0.00000E+00       2.67714E+08
        102   0.10200E+01       9.00519E+04       0.00000E+00      -4.52341E+01       0.00000E+00      -4.70034E+06       0.00000E+00       0.00000E+00       8.99726E+04       0.00000E+00       4.69837E+06       0.00000E+00       2.95294E+03      -7.72871E+00       0.00000E+00       7.74496E+05       0.00000E+00      -1.05527E+03       0.00000E+00       0.00000E+00       4.62514E+06       0.00000E+00       3.29332E+08       0.00000E+00       1.50603E+04      -4.62632E+06       0.00000E+00       8.84818E+01       0.00000E+00       3.29312E+08       0.00000E+00       0.00000E+00       1.62242E+03       0.00000E+00       1.90923E+04       0.00000E+00       1.78239E+08
        103   0.10300E+01       5.03949E+04       0.00000E+00      -3.66132E+01       0.00000E+00      -4.54686E+06       0.00000E+00       0.00000E+00       5.03247E+04       0.00000E+00       4.54506E+06       0.00000E+00       2.58268E+03      -7.97137E+00       0.00000E+00       7.66205E+05       0.00000E+00      -9.97115E+02       0.00000E+00       0.00000E+00       4.47941E+06       0.00000E+00       3.25093E+08       0.00000E+00       1.24572E+04      -4.48049E+06       0.00000E+00       2.35812E+01       0.00000E+00       3.25073E+08       0.00000E+00       0.00000E+00       1.47726E+03       0.00000E+00       1.50710E+04       0.00000E+00       9.00317E+07
        104   0.10400E+01       1.13348E+04       0.00000E+00      -2.79147E+01       0.00000E+00      -4.39395E+06       0.00000E+00       0.00000E+00       1.12664E+04       0.00000E+00       4.39231E+06       0.00000E+00       2.20835E+03      -8.21232E+00       0.00000E+00       7.57860E+05       0.00000E+00      -9.38415E+02       0.00000E+00       0.00000E+00       4.33432E+06       0.00000E+00       3.20831E+08       0.00000E+00       9.83158E+03      -4.33533E+06       0.00000E+00      -4.26711E+01       0.00000E+00       3.20811E+08       0.00000E+00       0.00000E+00       1.33030E+03       0.00000E+00       1.10174E+04       0.00000E+00       3.06560E+06
        105   0.10500E+01      -2.71245E+04       0.00000E+00      -1.91550E+01       0.00000E+00      -4.24168E+06       0.00000E+00       0.00000E+00      -2.71835E+04       0.00000E+00       4.24021E+06       0.00000E+00       1.83062E+03      -8.45073E+00       0.00000E+00       7.49468E+05       0.00000E+00      -8.79281E+02       0.00000E+00       0.00000E+00       4.18997E+06       0.00000E+00       3.16551E+08       0.00000E+00       7.18841E+03      -4.19088E+06       0.00000E+00      -1.10146E+02       0.00000E+00       3.16531E+08       0.00000E+00       0.00000E+00       1.18181E+03       0.00000E+00       6.93929E+03       0.00000E+00      -8.26322E+07
        106   0.10600E+01      -6.49904E+04       0.00000E+00      -1.03495E+01       0.00000E+00      -4.09003E+06       0.00000E+00       0.00000E+00      -6.50475E+04       0.00000E+00       4.08872E+06       0.00000E+00       1.45018E+03      -8.68592E+00       0.00000E+00       7.41020E+05       0.00000E+00      -8.19802E+02       0.00000E+00       0.00000E+00       4.04629E+06       0.00000E+00       3.12248E+08       0.00000E+00       4.53284E+03      -4.04713E+06       0.00000E+00      -1.78716E+02       0.00000E+00       3.12230E+08       0.00000E+00       0.00000E+00       1.03204E+03       0.00000E+00       2.84422E+03       0.00000E+00      -1.67093E+08
        107   0.10700E+01      -1.02259E+05       0.00000E+00      -1.51496E+00       0.00000E+00      -3.93908E+06       0.00000E+00       0.00000E+00      -1.02307E+05       0.00000E+00       3.93795E+06       0.00000E+00       1.06773E+03      -8.91710E+00       0.00000E+00       7.32527E+05       0.00000E+00      -7.60085E+02       0.00000E+00       0.00000E+00       3.90339E+06       0.00000E+00       3.07929E+08       0.00000E+00       1.87001E+03      -3.90413E+06       0.00000E+00      -2.48246E+02       0.00000E+00       3.07910E+08       0.00000E+00       0.00000E+00       8.81264E+02       0.00000E+00      -1.25992E+03       0.00000E+00      -2.50290E+08
        108   0.10800E+01      -1.38940E+05       0.00000E+00       7.33301E+00       0.00000E+00      -3.78882E+06       0.00000E+00       0.00000E+00      -1.38986E+05       0.00000E+00       3.78785E+06       0.00000E+00       6.83974E+02      -9.14360E+00       0.00000E+00       7.23977E+05       0.00000E+00      -7.00221E+02       0.00000E+00       0.00000E+00       3.76119E+06       0.00000E+00       3.03588E+08       0.00000E+00      -7.94898E+02      -3.76185E+06       0.00000E+00      -3.18605E+02       0.00000E+00       3.03570E+08       0.00000E+00       0.00000E+00       7.29730E+02       0.00000E+00      -5.36551E+03       0.00000E+00      -3.32258E+08
        109   0.10900E+01      -1.75031E+05       0.00000E+00       1.61778E+01       0.00000E+00      -3.63931E+06       0.00000E+00       0.00000E+00      -1.75067E+05       0.00000E+00       3.63852E+06       0.00000E+00       2.99600E+02      -9.36466E+00       0.00000E+00       7.15381E+05       0.00000E+00      -6.40316E+02       0.00000E+00       0.00000E+00       3.61980E+06       0.00000E+00       2.99230E+08       0.00000E+00      -3.45678E+03      -3.62035E+06       0.00000E+00      -3.89656E+02       0.00000E+00       2.99213E+08       0.00000E+00       0.00000E+00       5.77719E+02       0.00000E+00      -9.46469E+03       0.00000E+00      -4.12973E+08
        110   0.11000E+01      -2.10541E+05       0.00000E+00       2.50036E+01       0.00000E+00      -3.49053E+06       0.00000E+00       0.00000E+00      -2.10575E+05       0.00000E+00       3.48991E+06       0.00000E+00      -8.46764E+01      -9.57961E+00       0.00000E+00       7.06730E+05       0.00000E+00      -5.80460E+02       0.00000E+00       0.00000E+00       3.47912E+06       0.00000E+00       2.94852E+08       0.00000E+00      -6.11039E+03      -3.47960E+06       0.00000E+00      -4.61264E+02       0.00000E+00       2.94836E+08       0.00000E+00       0.00000E+00       4.25482E+02       0.00000E+00      -1.35498E+04       0.00000E+00      -4.92472E+08
        111   0.11100E+01      -2.45470E+05       0.00000E+00       3.37938E+01       0.00000E+00      -3.34256E+06       0.00000E+00       0.00000E+00      -2.45494E+05       0.00000E+00       3.34212E+06       0.00000E+00      -4.68167E+02      -9.78774E+00       0.00000E+00       6.98031E+05       0.00000E+00      -5.20761E+02       0.00000E+00       0.00000E+00       3.33928E+06       0.00000E+00       2.90458E+08       0.00000E+00      -8.75068E+03      -3.33965E+06       0.00000E+00      -5.33290E+02       0.00000E+00       2.90442E+08       0.00000E+00       0.00000E+00       2.73299E+02       0.00000E+00      -1.76130E+04       0.00000E+00      -5.70732E+08
        112   0.11200E+01      -2.79828E+05       0.00000E+00       4.25326E+01       0.00000E+00      -3.19538E+06       0.00000E+00       0.00000E+00      -2.79850E+05       0.00000E+00       3.19510E+06       0.00000E+00      -8.50153E+02      -9.98839E+00       0.00000E+00       6.89276E+05       0.00000E+00      -4.61308E+02       0.00000E+00       0.00000E+00       3.20017E+06       0.00000E+00       2.86044E+08       0.00000E+00      -1.13724E+04      -3.20047E+06       0.00000E+00      -6.05597E+02       0.00000E+00       2.86029E+08       0.00000E+00       0.00000E+00       1.21422E+02       0.00000E+00      -2.16466E+04       0.00000E+00      -6.47793E+08
        113   0.11300E+01      -3.13615E+05       0.00000E+00       5.12037E+01       0.00000E+00      -3.04906E+06       0.00000E+00       0.00000E+00      -3.13627E+05       0.00000E+00       3.04895E+06       0.00000E+00      -1.22996E+03      -1.01809E+01       0.00000E+00       6.80474E+05       0.00000E+00      -4.02206E+02       0.00000E+00       0.00000E+00       3.06192E+06       0.00000E+00       2.81615E+08       0.00000E+00      -1.39707E+04      -3.06212E+06       0.00000E+00      -6.78044E+02       0.00000E+00       2.81600E+08       0.00000E+00       0.00000E+00      -2.98705E+01       0.00000E+00      -2.56430E+04       0.00000E+00      -7.23633E+08
        114   0.11400E+01      -3.46842E+05       0.00000E+00       5.97914E+01       0.00000E+00      -2.90356E+06       0.00000E+00       0.00000E+00      -3.46852E+05       0.00000E+00       2.90363E+06       0.00000E+00      -1.60686E+03      -1.03646E+01       0.00000E+00       6.71617E+05       0.00000E+00      -3.43544E+02       0.00000E+00       0.00000E+00       2.92444E+06       0.00000E+00       2.77167E+08       0.00000E+00      -1.65403E+04      -2.92455E+06       0.00000E+00      -7.50494E+02       0.00000E+00       2.77153E+08       0.00000E+00       0.00000E+00      -1.80328E+02       0.00000E+00      -2.95947E+04       0.00000E+00      -7.98294E+08
[...]
       5972   0.59720E+02       2.34795E+04       0.00000E+00      -5.21846E+01       0.00000E+00      -6.41993E+04       0.00000E+00       0.00000E+00       2.34109E+04       0.00000E+00       6.31528E+04       0.00000E+00       3.23922E+03      -3.55704E-01       0.00000E+00      -8.91989E+03       0.00000E+00      -3.39992E+02       0.00000E+00       0.00000E+00       3.51014E+04       0.00000E+00       2.02506E+04       0.00000E+00       2.32199E+04      -3.57267E+04       0.00000E+00       4.00238E+02       0.00000E+00       1.84593E+04       0.00000E+00       0.00000E+00       1.09542E+03       0.00000E+00       3.42479E+04       0.00000E+00       1.15284E+07
       5973   0.59730E+02       2.39056E+04       0.00000E+00      -5.79927E+01       0.00000E+00      -6.84672E+04       0.00000E+00       0.00000E+00       2.38306E+04       0.00000E+00       6.73205E+04       0.00000E+00       3.62655E+03      -3.63231E-01       0.00000E+00      -9.21994E+03       0.00000E+00      -3.81687E+02       0.00000E+00       0.00000E+00       3.58047E+04       0.00000E+00      -3.52956E+03       0.00000E+00       2.60225E+04      -3.64880E+04       0.00000E+00       4.36607E+02       0.00000E+00      -5.25670E+03       0.00000E+00       0.00000E+00       1.22521E+03       0.00000E+00       3.81426E+04       0.00000E+00       1.19630E+07
       5974   0.59740E+02       2.43325E+04       0.00000E+00      -6.36951E+01       0.00000E+00      -7.26931E+04       0.00000E+00       0.00000E+00       2.42490E+04       0.00000E+00       7.14185E+04       0.00000E+00       4.00693E+03      -3.69734E-01       0.00000E+00      -9.52145E+03       0.00000E+00      -4.22647E+02       0.00000E+00       0.00000E+00       3.64906E+04       0.00000E+00      -2.57775E+04       0.00000E+00       2.87751E+04      -3.72518E+04       0.00000E+00       4.72261E+02       0.00000E+00      -2.79839E+04       0.00000E+00       0.00000E+00       1.35269E+03       0.00000E+00       4.19667E+04       0.00000E+00       1.24235E+07
       5975   0.59750E+02       2.47333E+04       0.00000E+00      -6.92787E+01       0.00000E+00      -7.67844E+04       0.00000E+00       0.00000E+00       2.46439E+04       0.00000E+00       7.54140E+04       0.00000E+00       4.37965E+03      -3.75454E-01       0.00000E+00      -9.81092E+03       0.00000E+00      -4.62799E+02       0.00000E+00       0.00000E+00       3.71504E+04       0.00000E+00      -4.86586E+04       0.00000E+00       3.14727E+04      -3.79680E+04       0.00000E+00       5.07104E+02       0.00000E+00      -5.07619E+04       0.00000E+00       0.00000E+00       1.47756E+03       0.00000E+00       4.57123E+04       0.00000E+00       1.28387E+07
       5976   0.59760E+02       2.51344E+04       0.00000E+00      -7.47357E+01       0.00000E+00      -8.08195E+04       0.00000E+00       0.00000E+00       2.50366E+04       0.00000E+00       7.93265E+04       0.00000E+00       4.74399E+03      -3.80267E-01       0.00000E+00      -1.01006E+04       0.00000E+00      -5.02058E+02       0.00000E+00       0.00000E+00       3.77917E+04       0.00000E+00      -6.99269E+04       0.00000E+00       3.41099E+04      -3.86847E+04       0.00000E+00       5.41112E+02       0.00000E+00      -7.24610E+04       0.00000E+00       0.00000E+00       1.59965E+03       0.00000E+00       4.93731E+04       0.00000E+00       1.32785E+07
       5977   0.59770E+02       2.55088E+04       0.00000E+00      -8.00534E+01       0.00000E+00      -8.47067E+04       0.00000E+00       0.00000E+00       2.54054E+04       0.00000E+00       8.31228E+04       0.00000E+00       5.09926E+03      -3.84413E-01       0.00000E+00      -1.03772E+04       0.00000E+00      -5.40356E+02       0.00000E+00       0.00000E+00       3.84056E+04       0.00000E+00      -9.17196E+04       0.00000E+00       3.66817E+04      -3.93511E+04       0.00000E+00       5.74192E+02       0.00000E+00      -9.41699E+04       0.00000E+00       0.00000E+00       1.71867E+03       0.00000E+00       5.29413E+04       0.00000E+00       1.36711E+07
       5978   0.59780E+02       2.58825E+04       0.00000E+00      -8.52244E+01       0.00000E+00      -8.85234E+04       0.00000E+00       0.00000E+00       2.57713E+04       0.00000E+00       8.68229E+04       0.00000E+00       5.44479E+03      -3.87770E-01       0.00000E+00      -1.06528E+04       0.00000E+00      -5.77612E+02       0.00000E+00       0.00000E+00       3.90007E+04       0.00000E+00      -1.11761E+05       0.00000E+00       3.91832E+04      -4.00172E+04       0.00000E+00       6.06323E+02       0.00000E+00      -1.14732E+05       0.00000E+00       0.00000E+00       1.83444E+03       0.00000E+00       5.64113E+04       0.00000E+00       1.40873E+07
       5979   0.59790E+02       2.62293E+04       0.00000E+00      -9.02367E+01       0.00000E+00      -9.21792E+04       0.00000E+00       0.00000E+00       2.61127E+04       0.00000E+00       9.03935E+04       0.00000E+00       5.77990E+03      -3.90573E-01       0.00000E+00      -1.09141E+04       0.00000E+00      -6.13759E+02       0.00000E+00       0.00000E+00       3.95672E+04       0.00000E+00      -1.32390E+05       0.00000E+00       4.16097E+04      -4.06336E+04       0.00000E+00       6.37416E+02       0.00000E+00      -1.35172E+05       0.00000E+00       0.00000E+00       1.94669E+03       0.00000E+00       5.97756E+04       0.00000E+00       1.44548E+07
       5980   0.59800E+02       2.65748E+04       0.00000E+00      -9.50835E+01       0.00000E+00      -9.57508E+04       0.00000E+00       0.00000E+00       2.64509E+04       0.00000E+00       9.38544E+04       0.00000E+00       6.10399E+03      -3.92708E-01       0.00000E+00      -1.11735E+04       0.00000E+00      -6.48723E+02       0.00000E+00       0.00000E+00       4.01135E+04       0.00000E+00      -1.51192E+05       0.00000E+00       4.39564E+04      -4.12481E+04       0.00000E+00       6.67452E+02       0.00000E+00      -1.54403E+05       0.00000E+00       0.00000E+00       2.05526E+03       0.00000E+00       6.30288E+04       0.00000E+00       1.48447E+07
       5981   0.59810E+02       2.68925E+04       0.00000E+00      -9.97531E+01       0.00000E+00      -9.91498E+04       0.00000E+00       0.00000E+00       2.67635E+04       0.00000E+00       9.71757E+04       0.00000E+00       6.41641E+03      -3.94401E-01       0.00000E+00      -1.14173E+04       0.00000E+00      -6.82440E+02       0.00000E+00       0.00000E+00       4.06323E+04       0.00000E+00      -1.70370E+05       0.00000E+00       4.62190E+04      -4.18117E+04       0.00000E+00       6.96347E+02       0.00000E+00      -1.73471E+05       0.00000E+00       0.00000E+00       2.15990E+03       0.00000E+00       6.61638E+04       0.00000E+00       1.51848E+07
       5982   0.59820E+02       2.72084E+04       0.00000E+00      -1.04239E+02       0.00000E+00      -1.02453E+05       0.00000E+00       0.00000E+00       2.70727E+04       0.00000E+00       1.00375E+05       0.00000E+00       6.71659E+03      -3.95539E-01       0.00000E+00      -1.16582E+04       0.00000E+00      -7.14840E+02       0.00000E+00       0.00000E+00       4.11300E+04       0.00000E+00      -1.87717E+05       0.00000E+00       4.83929E+04      -4.23731E+04       0.00000E+00       7.24086E+02       0.00000E+00      -1.91234E+05       0.00000E+00       0.00000E+00       2.26046E+03       0.00000E+00       6.91758E+04       0.00000E+00       1.55462E+07
       5983   0.59830E+02       2.74960E+04       0.00000E+00      -1.08532E+02       0.00000E+00      -1.05570E+05       0.00000E+00       0.00000E+00       2.73557E+04       0.00000E+00       1.03422E+05       0.00000E+00       7.00394E+03      -3.96348E-01       0.00000E+00      -1.18828E+04       0.00000E+00      -7.45867E+02       0.00000E+00       0.00000E+00       4.15983E+04       0.00000E+00      -2.05382E+05       0.00000E+00       5.04742E+04      -4.28819E+04       0.00000E+00       7.50587E+02       0.00000E+00      -2.08785E+05       0.00000E+00       0.00000E+00       2.35669E+03       0.00000E+00       7.20582E+04       0.00000E+00       1.58561E+07
       5984   0.59840E+02       2.77813E+04       0.00000E+00      -1.12624E+02       0.00000E+00      -1.08580E+05       0.00000E+00       0.00000E+00       2.76345E+04       0.00000E+00       1.06338E+05       0.00000E+00       7.27793E+03      -3.96710E-01       0.00000E+00      -1.21033E+04       0.00000E+00      -7.75453E+02       0.00000E+00       0.00000E+00       4.20454E+04       0.00000E+00      -2.21162E+05       0.00000E+00       5.24588E+04      -4.33882E+04       0.00000E+00       7.75841E+02       0.00000E+00      -2.24963E+05       0.00000E+00       0.00000E+00       2.44847E+03       0.00000E+00       7.48065E+04       0.00000E+00       1.61858E+07
       5985   0.59850E+02       2.80378E+04       0.00000E+00      -1.16507E+02       0.00000E+00      -1.11396E+05       0.00000E+00       0.00000E+00       2.78872E+04       0.00000E+00       1.09090E+05       0.00000E+00       7.53801E+03      -3.96849E-01       0.00000E+00      -1.23066E+04       0.00000E+00      -8.03548E+02       0.00000E+00       0.00000E+00       4.24628E+04       0.00000E+00      -2.37187E+05       0.00000E+00       5.43429E+04      -4.38411E+04       0.00000E+00       7.99768E+02       0.00000E+00      -2.40850E+05       0.00000E+00       0.00000E+00       2.53557E+03       0.00000E+00       7.74145E+04       0.00000E+00       1.64645E+07
       5986   0.59860E+02       2.82916E+04       0.00000E+00      -1.20176E+02       0.00000E+00      -1.14093E+05       0.00000E+00       0.00000E+00       2.81349E+04       0.00000E+00       1.11701E+05       0.00000E+00       7.78373E+03      -3.96646E-01       0.00000E+00      -1.25050E+04       0.00000E+00      -8.30091E+02       0.00000E+00       0.00000E+00       4.28585E+04       0.00000E+00      -2.51265E+05       0.00000E+00       5.61229E+04      -4.42914E+04       0.00000E+00       8.22365E+02       0.00000E+00      -2.55306E+05       0.00000E+00       0.00000E+00       2.61787E+03       0.00000E+00       7.98784E+04       0.00000E+00       1.67611E+07
       5987   0.59870E+02       2.85161E+04       0.00000E+00      -1.23621E+02       0.00000E+00      -1.16586E+05       0.00000E+00       0.00000E+00       2.83562E+04       0.00000E+00       1.14139E+05       0.00000E+00       8.01457E+03      -3.96312E-01       0.00000E+00      -1.26854E+04       0.00000E+00      -8.55037E+02       0.00000E+00       0.00000E+00       4.32238E+04       0.00000E+00      -2.65535E+05       0.00000E+00       5.77954E+04      -4.46866E+04       0.00000E+00       8.43557E+02       0.00000E+00      -2.69440E+05       0.00000E+00       0.00000E+00       2.69517E+03       0.00000E+00       8.21926E+04       0.00000E+00       1.70059E+07
       5988   0.59880E+02       2.87374E+04       0.00000E+00      -1.26838E+02       0.00000E+00      -1.18952E+05       0.00000E+00       0.00000E+00       2.85723E+04       0.00000E+00       1.16426E+05       0.00000E+00       8.23015E+03      -3.95731E-01       0.00000E+00      -1.28600E+04       0.00000E+00      -8.78332E+02       0.00000E+00       0.00000E+00       4.35678E+04       0.00000E+00      -2.77829E+05       0.00000E+00       5.93572E+04      -4.50792E+04       0.00000E+00       8.63344E+02       0.00000E+00      -2.82089E+05       0.00000E+00       0.00000E+00       2.76737E+03       0.00000E+00       8.43537E+04       0.00000E+00       1.72676E+07
       5989   0.59890E+02       2.89291E+04       0.00000E+00      -1.29819E+02       0.00000E+00      -1.21104E+05       0.00000E+00       0.00000E+00       2.87612E+04       0.00000E+00       1.18534E+05       0.00000E+00       8.43000E+03      -3.95108E-01       0.00000E+00      -1.30160E+04       0.00000E+00      -8.99935E+02       0.00000E+00       0.00000E+00       4.38795E+04       0.00000E+00      -2.90231E+05       0.00000E+00       6.08053E+04      -4.54159E+04       0.00000E+00       8.81657E+02       0.00000E+00      -2.94341E+05       0.00000E+00       0.00000E+00       2.83428E+03       0.00000E+00       8.63567E+04       0.00000E+00       1.74767E+07
       5990   0.59900E+02       2.91171E+04       0.00000E+00      -1.32562E+02       0.00000E+00      -1.23121E+05       0.00000E+00       0.00000E+00       2.89446E+04       0.00000E+00       1.20482E+05       0.00000E+00       8.61379E+03      -3.94320E-01       0.00000E+00      -1.31656E+04       0.00000E+00      -9.19801E+02       0.00000E+00       0.00000E+00       4.41692E+04       0.00000E+00      -3.00592E+05       0.00000E+00       6.21369E+04      -4.57489E+04       0.00000E+00       8.98500E+02       0.00000E+00      -3.05070E+05       0.00000E+00       0.00000E+00       2.89584E+03       0.00000E+00       8.81988E+04       0.00000E+00       1.77021E+07
       5991   0.59910E+02       2.92755E+04       0.00000E+00      -1.35057E+02       0.00000E+00      -1.24918E+05       0.00000E+00       0.00000E+00       2.91008E+04       0.00000E+00       1.22244E+05       0.00000E+00       8.78112E+03      -3.93570E-01       0.00000E+00      -1.32957E+04       0.00000E+00      -9.37895E+02       0.00000E+00       0.00000E+00       4.44283E+04       0.00000E+00      -3.11092E+05       0.00000E+00       6.33495E+04      -4.60268E+04       0.00000E+00       9.13809E+02       0.00000E+00      -3.15375E+05       0.00000E+00       0.00000E+00       2.95186E+03       0.00000E+00       8.98756E+04       0.00000E+00       1.78739E+07
       5992   0.59920E+02       2.94298E+04       0.00000E+00      -1.37303E+02       0.00000E+00      -1.26573E+05       0.00000E+00       0.00000E+00       2.92512E+04       0.00000E+00       1.23841E+05       0.00000E+00       8.93174E+03      -3.92725E-01       0.00000E+00      -1.34190E+04       0.00000E+00      -9.54178E+02       0.00000E+00       0.00000E+00       4.46641E+04       0.00000E+00      -3.19510E+05       0.00000E+00       6.44408E+04      -4.63005E+04       0.00000E+00       9.27595E+02       0.00000E+00      -3.24097E+05       0.00000E+00       0.00000E+00       3.00230E+03       0.00000E+00       9.13849E+04       0.00000E+00       1.80617E+07
       5993   0.59930E+02       2.95541E+04       0.00000E+00      -1.39294E+02       0.00000E+00      -1.28002E+05       0.00000E+00       0.00000E+00       2.93739E+04       0.00000E+00       1.25244E+05       0.00000E+00       9.06529E+03      -3.91983E-01       0.00000E+00      -1.35223E+04       0.00000E+00      -9.68622E+02       0.00000E+00       0.00000E+00       4.48688E+04       0.00000E+00      -3.27963E+05       0.00000E+00       6.54087E+04      -4.65178E+04       0.00000E+00       9.39797E+02       0.00000E+00      -3.32390E+05       0.00000E+00       0.00000E+00       3.04701E+03       0.00000E+00       9.27229E+04       0.00000E+00       1.81949E+07
       5994   0.59940E+02       2.96742E+04       0.00000E+00      -1.41028E+02       0.00000E+00      -1.29284E+05       0.00000E+00       0.00000E+00       2.94909E+04       0.00000E+00       1.26479E+05       0.00000E+00       9.18157E+03      -3.91208E-01       0.00000E+00      -1.36183E+04       0.00000E+00      -9.81195E+02       0.00000E+00       0.00000E+00       4.50505E+04       0.00000E+00      -3.34321E+05       0.00000E+00       6.62513E+04      -4.67299E+04       0.00000E+00       9.50431E+02       0.00000E+00      -3.39061E+05       0.00000E+00       0.00000E+00       3.08596E+03       0.00000E+00       9.38881E+04       0.00000E+00       1.83438E+07
       5995   0.59950E+02       2.97639E+04       0.00000E+00      -1.42500E+02       0.00000E+00      -1.30334E+05       0.00000E+00       0.00000E+00       2.95796E+04       0.00000E+00       1.27513E+05       0.00000E+00       9.28032E+03      -3.90583E-01       0.00000E+00      -1.36939E+04       0.00000E+00      -9.91878E+02       0.00000E+00       0.00000E+00       4.52001E+04       0.00000E+00      -3.40729E+05       0.00000E+00       6.69670E+04      -4.68874E+04       0.00000E+00       9.59443E+02       0.00000E+00      -3.45258E+05       0.00000E+00       0.00000E+00       3.11902E+03       0.00000E+00       9.48772E+04       0.00000E+00       1.84375E+07
       5996   0.59960E+02       2.98491E+04       0.00000E+00      -1.43709E+02       0.00000E+00      -1.31234E+05       0.00000E+00       0.00000E+00       2.96625E+04       0.00000E+00       1.28374E+05       0.00000E+00       9.36140E+03      -3.89970E-01       0.00000E+00      -1.37619E+04       0.00000E+00      -1.00064E+03       0.00000E+00       0.00000E+00       4.53270E+04       0.00000E+00      -3.44982E+05       0.00000E+00       6.75545E+04      -4.70391E+04       0.00000E+00       9.66854E+02       0.00000E+00      -3.49831E+05       0.00000E+00       0.00000E+00       3.14617E+03       0.00000E+00       9.56896E+04       0.00000E+00       1.85462E+07
       5997   0.59970E+02       2.99042E+04       0.00000E+00      -1.44651E+02       0.00000E+00      -1.31898E+05       0.00000E+00       0.00000E+00       2.97170E+04       0.00000E+00       1.29034E+05       0.00000E+00       9.42459E+03      -3.89547E-01       0.00000E+00      -1.38091E+04       0.00000E+00      -1.00748E+03       0.00000E+00       0.00000E+00       4.54215E+04       0.00000E+00      -3.49290E+05       0.00000E+00       6.80126E+04      -4.71342E+04       0.00000E+00       9.72615E+02       0.00000E+00      -3.53891E+05       0.00000E+00       0.00000E+00       3.16732E+03       0.00000E+00       9.63225E+04       0.00000E+00       1.86001E+07
       5998   0.59980E+02       2.99547E+04       0.00000E+00      -1.45326E+02       0.00000E+00      -1.32408E+05       0.00000E+00       0.00000E+00       2.97655E+04       0.00000E+00       1.29517E+05       0.00000E+00       9.46984E+03      -3.89169E-01       0.00000E+00      -1.38485E+04       0.00000E+00      -1.01237E+03       0.00000E+00       0.00000E+00       4.54922E+04       0.00000E+00      -3.51404E+05       0.00000E+00       6.83404E+04      -4.72241E+04       0.00000E+00       9.76753E+02       0.00000E+00      -3.56341E+05       0.00000E+00       0.00000E+00       3.18248E+03       0.00000E+00       9.67759E+04       0.00000E+00       1.86688E+07
       5999   0.59990E+02       2.99744E+04       0.00000E+00      -1.45730E+02       0.00000E+00      -1.32683E+05       0.00000E+00       0.00000E+00       2.97859E+04       0.00000E+00       1.29797E+05       0.00000E+00       9.49700E+03      -3.88999E-01       0.00000E+00      -1.38670E+04       0.00000E+00      -1.01532E+03       0.00000E+00       0.00000E+00       4.55323E+04       0.00000E+00      -3.53587E+05       0.00000E+00       6.85374E+04      -4.72578E+04       0.00000E+00       9.79223E+02       0.00000E+00      -3.58223E+05       0.00000E+00       0.00000E+00       3.19157E+03       0.00000E+00       9.70478E+04       0.00000E+00       1.86817E+07
       6000   0.60000E+02       2.99899E+04       0.00000E+00      -1.45866E+02       0.00000E+00      -1.32802E+05       0.00000E+00       0.00000E+00       2.97999E+04       0.00000E+00       1.29899E+05       0.00000E+00       9.50608E+03      -3.88888E-01       0.00000E+00      -1.38774E+04       0.00000E+00      -1.01629E+03       0.00000E+00       0.00000E+00       4.55489E+04       0.00000E+00      -3.53567E+05       0.00000E+00       6.86030E+04      -4.72863E+04       0.00000E+00       9.80060E+02       0.00000E+00      -3.58482E+05       0.00000E+00       0.00000E+00       3.19462E+03       0.00000E+00       9.71389E+04       0.00000E+00       1.87094E+07

This summary file was closed on 23-Apr-2025 at 11:37:11.

