
This summary file was generated by TurbSim (from OpenFAST-v4.0.3) on 22-Apr-2025 at 15:46:48.


Runtime Options:

 438466540  Random seed #1
    RANLUX  Type of random number generator
         F  Output binary HH turbulence parameters?
         F  Output formatted turbulence parameters?
         F  Output AeroDyn HH files?
         T  Output AeroDyn FF files?
         F  Output BLADED FF files?
         F  Output tower data?
         F  Output HAWC FF files?
         F  Output formatted FF files?
         F  Output coherent turbulence time step file?
 0 -  NONE  IEC turbulence models scaled to exact specified standard deviation


Turbine/Model Specifications:

        25  Vertical grid-point matrix dimension
        25  Horizontal grid-point matrix dimension
     0.050  Time step [seconds]
   700.000  Analysis time [seconds]
   700.000  Usable output time [seconds]
   150.000  Hub height [m]
   299.999  Grid height [m]
   299.999  Grid width [m]
     0.000  Vertical flow angle [degrees]
     0.000  Horizontal flow angle [degrees]


Meteorological Boundary Conditions:

    IECKAI  IEC Kaimal spectral model
         1  IEC standard: IEC 61400-1 Ed. 3: 2005
         B  IEC turbulence characteristic
       NTM  IEC Normal Turbulence Model
       N/A  IEC Extreme Turbulence Model (ETM) "c" parameter [m/s]
       PL   Wind profile type
   150.000  Reference height [m]
    16.000  Reference wind speed [m/s]
       N/A  Jet height [m]
     0.120  Power law exponent
     0.030  Surface roughness length [m]


Non-IEC Meteorological Boundary Conditions:

       N/A  Site latitude [degrees]
       N/A  Gradient Richardson number
       N/A  Friction or shear velocity [m/s]
       N/A  Mixing layer depth [m]
       N/A  Mean hub u'w' Reynolds stress
       N/A  Mean hub u'v' Reynolds stress
       N/A  Mean hub v'w' Reynolds stress


Spatial Coherence Models:

       IEC  u-component coherence model
      NONE  v-component coherence model
      NONE  w-component coherence model
(   12.000, 0.353E-03)  u-component coherence parameters
                   N/A  v-component coherence parameters
                   N/A  w-component coherence parameters
       N/A  Coherence exponent


You have requested that the following file(s) be generated:

   weis_job_NTM_U16.000000_Seed438466540.0.bts (AeroDyn/TurbSim full-field wind file)


Turbulence Simulation Scaling Parameter Summary:

   Turbulence model used                            =  IEC Kaimal
   Turbulence characteristic                        =  B
   IEC turbulence type                              =  Normal Turbulence Model
   IEC standard                                     =  IEC 61400-1 Ed. 3: 2005
   Mean wind speed at hub height                    =   16.000 m/s
   Expected value of turbulence intensity at 15 m/s =   14.000%
   Characteristic value of standard deviation       =    2.464 m/s
   Turbulence scale                                 =   42.000 m
   u-component integral scale                       =  340.200 m
   Coherency scale                                  =  340.200 m
   Characteristic value of hub turbulence intensity =   15.400%
   Gradient Richardson number                       =    0.000

   Wind profile type                                =  Power law
   Power law exponent                               =    0.120
   Mean shear across rotor disk                     =    0.046 (m/s)/m
   Assumed rotor diameter                           =  299.999 m
   Surface roughness length                         =    0.030 m

   Nyquist frequency of turbulent wind field        =   10.000 Hz

   Number of time steps in the FFT                  =    14000
   Number of time steps output                      =    14000
   Number of points simulated                       =      625


Mean Flow Angles:

   Vertical   =   0.0 degrees
   Horizontal =   0.0 degrees

Mean Wind Speed Profile:

   Height    Wind Speed   Horizontal Angle  Vertical Angle  U-comp (X)   V-comp (Y)   W-comp (Z)
     (m)        (m/s)         (degrees)       (degrees)       (m/s)        (m/s)        (m/s)   
   ------    ----------   ----------------  --------------  ----------   ----------   ----------
    300.0       17.39            0.00            0.00         17.39         0.00         0.00
    287.5       17.30            0.00            0.00         17.30         0.00         0.00
    275.0       17.21            0.00            0.00         17.21         0.00         0.00
    262.5       17.11            0.00            0.00         17.11         0.00         0.00
    250.0       17.01            0.00            0.00         17.01         0.00         0.00
    237.5       16.91            0.00            0.00         16.91         0.00         0.00
    225.0       16.80            0.00            0.00         16.80         0.00         0.00
    212.5       16.68            0.00            0.00         16.68         0.00         0.00
    200.0       16.56            0.00            0.00         16.56         0.00         0.00
    187.5       16.43            0.00            0.00         16.43         0.00         0.00
    175.0       16.30            0.00            0.00         16.30         0.00         0.00
    162.5       16.15            0.00            0.00         16.15         0.00         0.00
    150.0       16.00            0.00            0.00         16.00         0.00         0.00
    137.5       15.83            0.00            0.00         15.83         0.00         0.00
    125.0       15.65            0.00            0.00         15.65         0.00         0.00
    112.5       15.46            0.00            0.00         15.46         0.00         0.00
    100.0       15.24            0.00            0.00         15.24         0.00         0.00
     87.5       15.00            0.00            0.00         15.00         0.00         0.00
     75.0       14.72            0.00            0.00         14.72         0.00         0.00
     62.5       14.40            0.00            0.00         14.40         0.00         0.00
     50.0       14.02            0.00            0.00         14.02         0.00         0.00
     37.5       13.55            0.00            0.00         13.55         0.00         0.00
     25.0       12.90            0.00            0.00         12.90         0.00         0.00
     12.5       11.87            0.00            0.00         11.87         0.00         0.00
      0.0        3.54            0.00            0.00          3.54         0.00         0.00


Harvested Random Seeds after Generation of the Random Numbers:

    121953125 K 1
            0 K 2


Hub-Height Simulated Turbulence Statistical Summary:

   Type of Wind        Min (m/s)   Mean (m/s)    Max (m/s)  Sigma (m/s)       TI (%)
   ----------------    ---------   ----------    ---------  -----------       ------
   Longitudinal (u)         9.62        16.00        22.66        2.000       12.499
   Lateral (v)             -9.21         0.00         6.41        1.934       12.086
   Vertical (w)            -3.89         0.00         4.40        1.201        7.506
   U component              9.62        16.00        22.66        2.000       12.499
   V component             -9.21         0.00         6.41        1.934       12.086
   W component             -3.89         0.00         4.40        1.201        7.506
   Horizontal (U&V)         9.66        16.11        23.63        2.015       12.503
   Total                    9.67        16.16        23.65        2.013       12.455

                       Min Reynolds     Mean Reynolds    Max Reynolds    Correlation
   Product             Stress (m/s)^2   Stress (m/s)^2   Stress (m/s)^2  Coefficient
   ----------------    --------------   --------------   --------------  -----------
   u'w'                    -16.014             0.128            18.156         0.053
   u'v'                    -52.332            -0.271            18.189        -0.070
   v'w'                    -25.531            -0.107            20.444        -0.046


   Friction Velocity (Ustar)  =      0.357 m/s
   Maximum Instantaneous TKE  =     57.109 (m/s)^2
   Maximum Instantaneous CTKE =     26.654 (m/s)^2


Grid Point Variance Summary:

   Y-coord -150.00 -137.50 -125.00 -112.50 -100.00  -87.50  -75.00  -62.50  -50.00  -37.50  -25.00  -12.50    0.00   12.50   25.00   37.50   50.00   62.50   75.00   87.50  100.00  112.50  125.00  137.50  150.00

   Height   Standard deviation at grid points for the u component:
   300.00    2.330   2.420   2.421   2.542   2.515   2.483   2.580   2.665   2.514   2.515   2.389   2.301   2.383   2.509   2.549   2.578   2.706   2.617   2.648   2.606   2.245   2.133   2.198   2.191   2.173
   287.50    2.280   2.538   2.660   2.550   2.486   2.634   2.531   2.505   2.318   2.214   2.215   2.401   2.118   2.370   2.557   2.624   2.473   2.726   2.720   2.569   2.384   2.277   2.254   2.373   2.318
   275.00    2.363   2.441   2.556   2.536   2.558   2.574   2.497   2.381   2.232   2.132   2.183   2.129   2.160   2.417   2.469   2.496   2.540   2.676   2.608   2.480   2.359   2.115   2.230   2.443   2.514
   262.50    2.234   2.443   2.354   2.411   2.547   2.395   2.374   2.272   2.223   2.177   2.234   2.132   2.215   2.328   2.290   2.445   2.508   2.525   2.487   2.505   2.334   2.229   2.222   2.477   2.476
   250.00    2.107   2.316   2.486   2.513   2.414   2.488   2.452   2.291   2.391   2.305   2.192   2.262   2.244   2.493   2.468   2.460   2.437   2.388   2.473   2.325   2.361   2.378   2.324   2.438   2.479
   237.50    2.173   2.307   2.537   2.649   2.550   2.353   2.397   2.429   2.326   2.383   2.374   2.299   2.291   2.353   2.412   2.427   2.335   2.222   2.330   2.258   2.347   2.477   2.507   2.454   2.633
   225.00    2.259   2.286   2.398   2.441   2.381   2.217   2.360   2.293   2.250   2.285   2.373   2.304   2.401   2.199   2.266   2.283   2.162   2.259   2.344   2.166   2.255   2.441   2.414   2.481   2.434
   212.50    2.197   2.314   2.369   2.329   2.324   2.253   2.300   2.201   2.207   2.229   2.334   2.194   2.252   2.328   2.286   2.401   2.378   2.411   2.230   2.208   2.309   2.528   2.421   2.441   2.356
   200.00    2.274   2.300   2.308   2.132   2.201   2.279   2.108   2.120   2.205   2.266   2.199   2.161   2.165   2.374   2.356   2.268   2.286   2.287   2.230   2.150   2.266   2.242   2.322   2.400   2.423
   187.50    2.323   2.377   2.247   2.279   2.157   2.255   2.249   2.017   2.111   2.094   2.057   2.116   2.263   2.300   2.396   2.243   2.292   2.242   2.199   2.253   2.301   2.162   2.147   2.285   2.388
   175.00    2.242   2.313   2.174   2.183   2.054   2.186   2.031   2.120   2.125   2.070   1.952   2.160   2.223   2.099   2.159   2.259   2.272   2.258   2.143   2.217   2.364   2.220   2.160   2.274   2.207
   162.50    2.169   2.219   2.264   2.071   1.983   2.143   2.119   1.913   2.022   2.008   1.960   2.143   2.201   2.057   2.237   2.416   2.392   2.190   2.139   2.069   2.160   2.176   2.259   2.228   2.245
   150.00    2.114   2.075   2.064   2.221   2.130   2.183   2.135   2.090   1.965   2.121   2.112   2.034   2.000   2.246   2.275   2.324   2.209   2.103   2.077   2.241   2.230   2.266   2.144   2.273   2.349
   137.50    1.998   2.021   2.030   2.104   2.163   2.308   2.216   2.281   2.147   2.232   2.142   2.311   2.262   2.346   2.286   2.077   2.122   2.104   2.207   2.114   2.215   2.067   2.176   2.270   2.324
   125.00    2.098   2.048   2.132   2.248   2.246   2.342   2.249   2.159   2.163   2.186   2.208   2.359   2.399   2.356   2.265   2.184   2.125   2.114   2.069   2.150   2.228   2.046   2.092   2.157   2.246
   112.50    2.186   2.175   2.267   2.318   2.217   2.268   2.262   2.303   2.224   2.302   2.359   2.524   2.468   2.350   2.244   2.177   2.362   2.109   1.993   2.106   1.995   2.073   2.179   2.174   2.152
   100.00    2.228   2.258   2.357   2.250   2.214   2.198   2.230   2.364   2.410   2.240   2.321   2.493   2.538   2.329   2.418   2.280   2.273   2.214   2.133   2.035   2.050   2.064   2.118   2.105   2.274
    87.50    2.248   2.287   2.243   2.336   2.305   2.214   2.290   2.504   2.456   2.170   2.252   2.500   2.572   2.293   2.261   2.234   2.293   2.325   2.102   1.983   1.927   2.111   2.153   2.217   2.277
    75.00    2.247   2.225   2.112   2.126   2.091   2.323   2.354   2.501   2.469   2.288   2.424   2.492   2.321   2.274   2.235   2.168   2.368   2.145   2.040   1.970   2.080   2.245   2.292   2.215   2.326
    62.50    2.286   2.220   2.178   2.199   2.253   2.401   2.394   2.430   2.378   2.281   2.373   2.470   2.496   2.311   2.341   2.198   2.149   1.924   1.943   1.985   2.146   2.315   2.225   2.303   2.334
    50.00    2.108   2.109   1.989   2.277   2.293   2.241   2.217   2.304   2.417   2.478   2.257   2.242   2.366   2.332   2.344   2.274   2.020   1.788   1.797   1.934   2.080   2.327   2.307   2.244   2.326
    37.50    1.987   1.888   2.053   2.268   2.347   2.293   2.215   2.176   2.386   2.598   2.589   2.388   2.332   2.071   2.272   2.455   2.146   1.858   1.822   1.929   2.229   2.415   2.434   2.393   2.470
    25.00    2.070   2.100   2.087   2.245   2.359   2.395   2.054   2.083   2.226   2.418   2.426   2.317   2.364   2.235   2.299   2.424   2.212   1.943   2.027   2.082   2.313   2.366   2.533   2.443   2.380
    12.50    2.261   2.289   2.213   2.297   2.349   2.313   2.186   2.172   2.187   2.284   2.371   2.238   2.348   2.279   2.296   2.431   2.335   2.086   1.978   2.133   2.392   2.459   2.385   2.528   2.470
     0.00    2.381   2.287   2.316   2.263   2.297   2.342   2.143   2.208   2.268   2.202   2.220   2.213   2.381   2.365   2.343   2.405   2.330   2.252   2.045   2.104   2.255   2.433   2.412   2.428   2.519

   Height   Standard deviation at grid points for the v component:
   300.00    1.934   1.934   1.934   1.934   1.934   1.934   1.934   1.934   1.934   1.934   1.934   1.934   1.934   1.934   1.934   1.934   1.934   1.934   1.934   1.934   1.934   1.934   1.934   1.934   1.934
   287.50    1.934   1.934   1.934   1.934   1.934   1.934   1.934   1.934   1.934   1.934   1.934   1.934   1.934   1.934   1.934   1.934   1.934   1.934   1.934   1.934   1.934   1.934   1.934   1.934   1.934
   275.00    1.934   1.934   1.934   1.934   1.934   1.934   1.934   1.934   1.934   1.934   1.934   1.934   1.934   1.934   1.934   1.934   1.934   1.934   1.934   1.934   1.934   1.934   1.934   1.934   1.934
   262.50    1.934   1.934   1.934   1.934   1.934   1.934   1.934   1.934   1.934   1.934   1.934   1.934   1.934   1.934   1.934   1.934   1.934   1.934   1.934   1.934   1.934   1.934   1.934   1.934   1.934
   250.00    1.934   1.934   1.934   1.934   1.934   1.934   1.934   1.934   1.934   1.934   1.934   1.934   1.934   1.934   1.934   1.934   1.934   1.934   1.934   1.934   1.934   1.934   1.934   1.934   1.934
   237.50    1.934   1.934   1.934   1.934   1.934   1.934   1.934   1.934   1.934   1.934   1.934   1.934   1.934   1.934   1.934   1.934   1.934   1.934   1.934   1.934   1.934   1.934   1.934   1.934   1.934
   225.00    1.934   1.934   1.934   1.934   1.934   1.934   1.934   1.934   1.934   1.934   1.934   1.934   1.934   1.934   1.934   1.934   1.934   1.934   1.934   1.934   1.934   1.934   1.934   1.934   1.934
   212.50    1.934   1.934   1.934   1.934   1.934   1.934   1.934   1.934   1.934   1.934   1.934   1.934   1.934   1.934   1.934   1.934   1.934   1.934   1.934   1.934   1.934   1.934   1.934   1.934   1.934
   200.00    1.934   1.934   1.934   1.934   1.934   1.934   1.934   1.934   1.934   1.934   1.934   1.934   1.934   1.934   1.934   1.934   1.934   1.934   1.934   1.934   1.934   1.934   1.934   1.934   1.934
   187.50    1.934   1.934   1.934   1.934   1.934   1.934   1.934   1.934   1.934   1.934   1.934   1.934   1.934   1.934   1.934   1.934   1.934   1.934   1.934   1.934   1.934   1.934   1.934   1.934   1.934
   175.00    1.934   1.934   1.934   1.934   1.934   1.934   1.934   1.934   1.934   1.934   1.934   1.934   1.934   1.934   1.934   1.934   1.934   1.934   1.934   1.934   1.934   1.934   1.934   1.934   1.934
   162.50    1.934   1.934   1.934   1.934   1.934   1.934   1.934   1.934   1.934   1.934   1.934   1.934   1.934   1.934   1.934   1.934   1.934   1.934   1.934   1.934   1.934   1.934   1.934   1.934   1.934
   150.00    1.934   1.934   1.934   1.934   1.934   1.934   1.934   1.934   1.934   1.934   1.934   1.934   1.934   1.934   1.934   1.934   1.934   1.934   1.934   1.934   1.934   1.934   1.934   1.934   1.934
   137.50    1.934   1.934   1.934   1.934   1.934   1.934   1.934   1.934   1.934   1.934   1.934   1.934   1.934   1.934   1.934   1.934   1.934   1.934   1.934   1.934   1.934   1.934   1.934   1.934   1.934
   125.00    1.934   1.934   1.934   1.934   1.934   1.934   1.934   1.934   1.934   1.934   1.934   1.934   1.934   1.934   1.934   1.934   1.934   1.934   1.934   1.934   1.934   1.934   1.934   1.934   1.934
   112.50    1.934   1.934   1.934   1.934   1.934   1.934   1.934   1.934   1.934   1.934   1.934   1.934   1.934   1.934   1.934   1.934   1.934   1.934   1.934   1.934   1.934   1.934   1.934   1.934   1.934
   100.00    1.934   1.934   1.934   1.934   1.934   1.934   1.934   1.934   1.934   1.934   1.934   1.934   1.934   1.934   1.934   1.934   1.934   1.934   1.934   1.934   1.934   1.934   1.934   1.934   1.934
    87.50    1.934   1.934   1.934   1.934   1.934   1.934   1.934   1.934   1.934   1.934   1.934   1.934   1.934   1.934   1.934   1.934   1.934   1.934   1.934   1.934   1.934   1.934   1.934   1.934   1.934
    75.00    1.934   1.934   1.934   1.934   1.934   1.934   1.934   1.934   1.934   1.934   1.934   1.934   1.934   1.934   1.934   1.934   1.934   1.934   1.934   1.934   1.934   1.934   1.934   1.934   1.934
    62.50    1.934   1.934   1.934   1.934   1.934   1.934   1.934   1.934   1.934   1.934   1.934   1.934   1.934   1.934   1.934   1.934   1.934   1.934   1.934   1.934   1.934   1.934   1.934   1.934   1.934
    50.00    1.934   1.934   1.934   1.934   1.934   1.934   1.934   1.934   1.934   1.934   1.934   1.934   1.934   1.934   1.934   1.934   1.934   1.934   1.934   1.934   1.934   1.934   1.934   1.934   1.934
    37.50    1.934   1.934   1.934   1.934   1.934   1.934   1.934   1.934   1.934   1.934   1.934   1.934   1.934   1.934   1.934   1.934   1.934   1.934   1.934   1.934   1.934   1.934   1.934   1.934   1.934
    25.00    1.934   1.934   1.934   1.934   1.934   1.934   1.934   1.934   1.934   1.934   1.934   1.934   1.934   1.934   1.934   1.934   1.934   1.934   1.934   1.934   1.934   1.934   1.934   1.934   1.934
    12.50    1.934   1.934   1.934   1.934   1.934   1.934   1.934   1.934   1.934   1.934   1.934   1.934   1.934   1.934   1.934   1.934   1.934   1.934   1.934   1.934   1.934   1.934   1.934   1.934   1.934
     0.00    1.934   1.934   1.934   1.934   1.934   1.934   1.934   1.934   1.934   1.934   1.934   1.934   1.934   1.934   1.934   1.934   1.934   1.934   1.934   1.934   1.934   1.934   1.934   1.934   1.934

   Height   Standard deviation at grid points for the w component:
   300.00    1.201   1.201   1.201   1.201   1.201   1.201   1.201   1.201   1.201   1.201   1.201   1.201   1.201   1.201   1.201   1.201   1.201   1.201   1.201   1.201   1.201   1.201   1.201   1.201   1.201
   287.50    1.201   1.201   1.201   1.201   1.201   1.201   1.201   1.201   1.201   1.201   1.201   1.201   1.201   1.201   1.201   1.201   1.201   1.201   1.201   1.201   1.201   1.201   1.201   1.201   1.201
   275.00    1.201   1.201   1.201   1.201   1.201   1.201   1.201   1.201   1.201   1.201   1.201   1.201   1.201   1.201   1.201   1.201   1.201   1.201   1.201   1.201   1.201   1.201   1.201   1.201   1.201
   262.50    1.201   1.201   1.201   1.201   1.201   1.201   1.201   1.201   1.201   1.201   1.201   1.201   1.201   1.201   1.201   1.201   1.201   1.201   1.201   1.201   1.201   1.201   1.201   1.201   1.201
   250.00    1.201   1.201   1.201   1.201   1.201   1.201   1.201   1.201   1.201   1.201   1.201   1.201   1.201   1.201   1.201   1.201   1.201   1.201   1.201   1.201   1.201   1.201   1.201   1.201   1.201
   237.50    1.201   1.201   1.201   1.201   1.201   1.201   1.201   1.201   1.201   1.201   1.201   1.201   1.201   1.201   1.201   1.201   1.201   1.201   1.201   1.201   1.201   1.201   1.201   1.201   1.201
   225.00    1.201   1.201   1.201   1.201   1.201   1.201   1.201   1.201   1.201   1.201   1.201   1.201   1.201   1.201   1.201   1.201   1.201   1.201   1.201   1.201   1.201   1.201   1.201   1.201   1.201
   212.50    1.201   1.201   1.201   1.201   1.201   1.201   1.201   1.201   1.201   1.201   1.201   1.201   1.201   1.201   1.201   1.201   1.201   1.201   1.201   1.201   1.201   1.201   1.201   1.201   1.201
   200.00    1.201   1.201   1.201   1.201   1.201   1.201   1.201   1.201   1.201   1.201   1.201   1.201   1.201   1.201   1.201   1.201   1.201   1.201   1.201   1.201   1.201   1.201   1.201   1.201   1.201
   187.50    1.201   1.201   1.201   1.201   1.201   1.201   1.201   1.201   1.201   1.201   1.201   1.201   1.201   1.201   1.201   1.201   1.201   1.201   1.201   1.201   1.201   1.201   1.201   1.201   1.201
   175.00    1.201   1.201   1.201   1.201   1.201   1.201   1.201   1.201   1.201   1.201   1.201   1.201   1.201   1.201   1.201   1.201   1.201   1.201   1.201   1.201   1.201   1.201   1.201   1.201   1.201
   162.50    1.201   1.201   1.201   1.201   1.201   1.201   1.201   1.201   1.201   1.201   1.201   1.201   1.201   1.201   1.201   1.201   1.201   1.201   1.201   1.201   1.201   1.201   1.201   1.201   1.201
   150.00    1.201   1.201   1.201   1.201   1.201   1.201   1.201   1.201   1.201   1.201   1.201   1.201   1.201   1.201   1.201   1.201   1.201   1.201   1.201   1.201   1.201   1.201   1.201   1.201   1.201
   137.50    1.201   1.201   1.201   1.201   1.201   1.201   1.201   1.201   1.201   1.201   1.201   1.201   1.201   1.201   1.201   1.201   1.201   1.201   1.201   1.201   1.201   1.201   1.201   1.201   1.201
   125.00    1.201   1.201   1.201   1.201   1.201   1.201   1.201   1.201   1.201   1.201   1.201   1.201   1.201   1.201   1.201   1.201   1.201   1.201   1.201   1.201   1.201   1.201   1.201   1.201   1.201
   112.50    1.201   1.201   1.201   1.201   1.201   1.201   1.201   1.201   1.201   1.201   1.201   1.201   1.201   1.201   1.201   1.201   1.201   1.201   1.201   1.201   1.201   1.201   1.201   1.201   1.201
   100.00    1.201   1.201   1.201   1.201   1.201   1.201   1.201   1.201   1.201   1.201   1.201   1.201   1.201   1.201   1.201   1.201   1.201   1.201   1.201   1.201   1.201   1.201   1.201   1.201   1.201
    87.50    1.201   1.201   1.201   1.201   1.201   1.201   1.201   1.201   1.201   1.201   1.201   1.201   1.201   1.201   1.201   1.201   1.201   1.201   1.201   1.201   1.201   1.201   1.201   1.201   1.201
    75.00    1.201   1.201   1.201   1.201   1.201   1.201   1.201   1.201   1.201   1.201   1.201   1.201   1.201   1.201   1.201   1.201   1.201   1.201   1.201   1.201   1.201   1.201   1.201   1.201   1.201
    62.50    1.201   1.201   1.201   1.201   1.201   1.201   1.201   1.201   1.201   1.201   1.201   1.201   1.201   1.201   1.201   1.201   1.201   1.201   1.201   1.201   1.201   1.201   1.201   1.201   1.201
    50.00    1.201   1.201   1.201   1.201   1.201   1.201   1.201   1.201   1.201   1.201   1.201   1.201   1.201   1.201   1.201   1.201   1.201   1.201   1.201   1.201   1.201   1.201   1.201   1.201   1.201
    37.50    1.201   1.201   1.201   1.201   1.201   1.201   1.201   1.201   1.201   1.201   1.201   1.201   1.201   1.201   1.201   1.201   1.201   1.201   1.201   1.201   1.201   1.201   1.201   1.201   1.201
    25.00    1.201   1.201   1.201   1.201   1.201   1.201   1.201   1.201   1.201   1.201   1.201   1.201   1.201   1.201   1.201   1.201   1.201   1.201   1.201   1.201   1.201   1.201   1.201   1.201   1.201
    12.50    1.201   1.201   1.201   1.201   1.201   1.201   1.201   1.201   1.201   1.201   1.201   1.201   1.201   1.201   1.201   1.201   1.201   1.201   1.201   1.201   1.201   1.201   1.201   1.201   1.201
     0.00    1.201   1.201   1.201   1.201   1.201   1.201   1.201   1.201   1.201   1.201   1.201   1.201   1.201   1.201   1.201   1.201   1.201   1.201   1.201   1.201   1.201   1.201   1.201   1.201   1.201

   Mean standard deviation across all grid points:
      u component:    2.278 m/s
      v component:    1.934 m/s
      w component:    1.201 m/s


U-component (X) statistics from the interpolated hub point:

   Mean =  16.0000 m/s
   TI   =  12.4986 %


Processing complete.  1116.9 CPU seconds used.
