
This summary file was generated by TurbSim (from OpenFAST-v4.0.3) on 22-Apr-2025 at 15:45:03.


Runtime Options:

1693606511  Random seed #1
    RANLUX  Type of random number generator
         F  Output binary HH turbulence parameters?
         F  Output formatted turbulence parameters?
         F  Output AeroDyn HH files?
         T  Output AeroDyn FF files?
         F  Output BLADED FF files?
         F  Output tower data?
         F  Output HAWC FF files?
         F  Output formatted FF files?
         F  Output coherent turbulence time step file?
 0 -  NONE  IEC turbulence models scaled to exact specified standard deviation


Turbine/Model Specifications:

        25  Vertical grid-point matrix dimension
        25  Horizontal grid-point matrix dimension
     0.050  Time step [seconds]
   700.000  Analysis time [seconds]
   700.000  Usable output time [seconds]
   150.000  Hub height [m]
   299.999  Grid height [m]
   299.999  Grid width [m]
     0.000  Vertical flow angle [degrees]
     0.000  Horizontal flow angle [degrees]


Meteorological Boundary Conditions:

    IECKAI  IEC Kaimal spectral model
         1  IEC standard: IEC 61400-1 Ed. 3: 2005
         B  IEC turbulence characteristic
       NTM  IEC Normal Turbulence Model
       N/A  IEC Extreme Turbulence Model (ETM) "c" parameter [m/s]
       PL   Wind profile type
   150.000  Reference height [m]
    12.000  Reference wind speed [m/s]
       N/A  Jet height [m]
     0.120  Power law exponent
     0.030  Surface roughness length [m]


Non-IEC Meteorological Boundary Conditions:

       N/A  Site latitude [degrees]
       N/A  Gradient Richardson number
       N/A  Friction or shear velocity [m/s]
       N/A  Mixing layer depth [m]
       N/A  Mean hub u'w' Reynolds stress
       N/A  Mean hub u'v' Reynolds stress
       N/A  Mean hub v'w' Reynolds stress


Spatial Coherence Models:

       IEC  u-component coherence model
      NONE  v-component coherence model
      NONE  w-component coherence model
(   12.000, 0.353E-03)  u-component coherence parameters
                   N/A  v-component coherence parameters
                   N/A  w-component coherence parameters
       N/A  Coherence exponent


You have requested that the following file(s) be generated:

   weis_job_NTM_U12.000000_Seed1693606511.0.bts (AeroDyn/TurbSim full-field wind file)


Turbulence Simulation Scaling Parameter Summary:

   Turbulence model used                            =  IEC Kaimal
   Turbulence characteristic                        =  B
   IEC turbulence type                              =  Normal Turbulence Model
   IEC standard                                     =  IEC 61400-1 Ed. 3: 2005
   Mean wind speed at hub height                    =   12.000 m/s
   Expected value of turbulence intensity at 15 m/s =   14.000%
   Characteristic value of standard deviation       =    2.044 m/s
   Turbulence scale                                 =   42.000 m
   u-component integral scale                       =  340.200 m
   Coherency scale                                  =  340.200 m
   Characteristic value of hub turbulence intensity =   17.033%
   Gradient Richardson number                       =    0.000

   Wind profile type                                =  Power law
   Power law exponent                               =    0.120
   Mean shear across rotor disk                     =    0.035 (m/s)/m
   Assumed rotor diameter                           =  299.999 m
   Surface roughness length                         =    0.030 m

   Nyquist frequency of turbulent wind field        =   10.000 Hz

   Number of time steps in the FFT                  =    14000
   Number of time steps output                      =    14000
   Number of points simulated                       =      625


Mean Flow Angles:

   Vertical   =   0.0 degrees
   Horizontal =   0.0 degrees

Mean Wind Speed Profile:

   Height    Wind Speed   Horizontal Angle  Vertical Angle  U-comp (X)   V-comp (Y)   W-comp (Z)
     (m)        (m/s)         (degrees)       (degrees)       (m/s)        (m/s)        (m/s)   
   ------    ----------   ----------------  --------------  ----------   ----------   ----------
    300.0       13.04            0.00            0.00         13.04         0.00         0.00
    287.5       12.97            0.00            0.00         12.97         0.00         0.00
    275.0       12.91            0.00            0.00         12.91         0.00         0.00
    262.5       12.83            0.00            0.00         12.83         0.00         0.00
    250.0       12.76            0.00            0.00         12.76         0.00         0.00
    237.5       12.68            0.00            0.00         12.68         0.00         0.00
    225.0       12.60            0.00            0.00         12.60         0.00         0.00
    212.5       12.51            0.00            0.00         12.51         0.00         0.00
    200.0       12.42            0.00            0.00         12.42         0.00         0.00
    187.5       12.33            0.00            0.00         12.33         0.00         0.00
    175.0       12.22            0.00            0.00         12.22         0.00         0.00
    162.5       12.12            0.00            0.00         12.12         0.00         0.00
    150.0       12.00            0.00            0.00         12.00         0.00         0.00
    137.5       11.88            0.00            0.00         11.88         0.00         0.00
    125.0       11.74            0.00            0.00         11.74         0.00         0.00
    112.5       11.59            0.00            0.00         11.59         0.00         0.00
    100.0       11.43            0.00            0.00         11.43         0.00         0.00
     87.5       11.25            0.00            0.00         11.25         0.00         0.00
     75.0       11.04            0.00            0.00         11.04         0.00         0.00
     62.5       10.80            0.00            0.00         10.80         0.00         0.00
     50.0       10.52            0.00            0.00         10.52         0.00         0.00
     37.5       10.16            0.00            0.00         10.16         0.00         0.00
     25.0        9.68            0.00            0.00          9.68         0.00         0.00
     12.5        8.91            0.00            0.00          8.91         0.00         0.00
      0.0        2.65            0.00            0.00          2.65         0.00         0.00


Harvested Random Seeds after Generation of the Random Numbers:

    121953125 K 1
            0 K 2


Hub-Height Simulated Turbulence Statistical Summary:

   Type of Wind        Min (m/s)   Mean (m/s)    Max (m/s)  Sigma (m/s)       TI (%)
   ----------------    ---------   ----------    ---------  -----------       ------
   Longitudinal (u)         5.28        12.00        17.04        1.939       16.155
   Lateral (v)             -5.53         0.00         6.10        1.601       13.345
   Vertical (w)            -3.29         0.00         3.45        0.999        8.328
   U component              5.28        12.00        17.04        1.939       16.155
   V component             -5.53         0.00         6.10        1.601       13.345
   W component             -3.29         0.00         3.45        0.999        8.328
   Horizontal (U&V)         5.35        12.11        17.05        1.930       15.941
   Total                    5.37        12.15        17.06        1.925       15.847

                       Min Reynolds     Mean Reynolds    Max Reynolds    Correlation
   Product             Stress (m/s)^2   Stress (m/s)^2   Stress (m/s)^2  Coefficient
   ----------------    --------------   --------------   --------------  -----------
   u'w'                    -14.790             0.005            10.054         0.002
   u'v'                    -17.380            -0.568            17.758        -0.183
   v'w'                    -11.227            -0.120            11.623        -0.075


   Friction Velocity (Ustar)  =      0.068 m/s
   Maximum Instantaneous TKE  =     23.075 (m/s)^2
   Maximum Instantaneous CTKE =      9.653 (m/s)^2


Grid Point Variance Summary:

   Y-coord -150.00 -137.50 -125.00 -112.50 -100.00  -87.50  -75.00  -62.50  -50.00  -37.50  -25.00  -12.50    0.00   12.50   25.00   37.50   50.00   62.50   75.00   87.50  100.00  112.50  125.00  137.50  150.00

   Height   Standard deviation at grid points for the u component:
   300.00    1.823   1.896   1.888   2.048   1.970   1.870   1.925   1.830   1.710   1.766   1.779   1.824   1.809   2.040   1.936   2.050   1.904   1.838   1.882   1.688   1.702   1.749   1.747   1.759   1.699
   287.50    1.934   1.862   1.985   1.990   2.008   1.783   1.898   1.652   1.856   1.790   1.959   2.001   1.943   2.063   2.083   1.950   1.837   1.765   1.614   1.700   1.585   1.682   1.668   1.636   1.708
   275.00    1.826   1.792   1.848   1.966   1.934   1.821   1.783   1.692   1.897   1.920   1.985   2.080   2.016   1.926   1.877   1.674   1.805   1.728   1.692   1.614   1.639   1.672   1.597   1.682   1.589
   262.50    1.783   1.914   1.848   1.895   1.870   1.838   1.833   1.850   1.888   1.917   1.928   2.057   1.929   1.972   1.844   1.818   1.784   1.739   1.631   1.677   1.743   1.754   1.696   1.651   1.709
   250.00    1.783   1.701   1.803   1.763   1.764   1.748   1.799   1.929   2.005   1.852   1.999   2.107   1.753   1.667   1.806   1.862   1.869   1.858   1.846   1.786   1.757   1.777   1.755   1.835   1.908
   237.50    1.729   1.728   1.835   1.835   1.774   1.907   1.835   2.030   2.129   2.085   2.131   1.974   1.844   1.761   1.928   1.811   1.818   1.739   1.850   1.872   1.822   1.696   1.886   1.921   1.960
   225.00    1.660   1.851   1.916   1.821   1.827   1.937   2.048   2.201   2.225   2.111   2.188   1.994   1.857   1.971   1.977   1.880   1.712   1.874   1.905   1.926   1.858   1.696   1.865   1.916   1.991
   212.50    1.725   1.792   1.787   1.791   2.054   2.146   2.116   2.213   2.218   2.057   2.126   1.948   1.685   1.849   1.856   1.813   1.853   1.819   1.831   1.704   1.735   1.808   1.768   1.820   1.899
   200.00    1.888   2.015   1.967   1.995   2.040   2.093   2.038   2.036   2.124   2.214   2.089   1.893   1.798   1.813   1.825   1.836   1.828   1.868   1.803   1.863   1.730   1.720   1.674   1.687   1.830
   187.50    1.889   2.033   2.057   2.146   2.105   2.097   2.196   2.175   2.153   2.255   2.094   1.881   1.758   1.854   1.857   1.843   2.002   2.004   2.000   1.985   2.001   1.865   1.806   1.734   1.731
   175.00    1.856   1.914   2.088   2.200   2.172   2.126   2.133   2.078   2.056   2.096   2.235   2.002   1.803   1.822   1.923   1.885   1.999   1.989   2.071   1.903   2.148   2.070   1.972   1.820   1.760
   162.50    1.886   2.077   2.230   2.218   2.298   2.168   2.127   2.207   2.032   2.021   2.148   2.110   1.963   1.987   1.806   1.981   2.041   1.968   2.036   1.938   2.081   1.942   1.938   1.704   1.839
   150.00    1.917   2.117   2.174   2.326   2.334   2.256   2.236   2.068   2.046   2.032   1.986   1.903   1.939   1.835   1.942   1.951   1.970   2.011   1.926   2.011   2.012   1.914   1.704   1.676   1.774
   137.50    1.939   1.999   2.139   2.208   2.128   2.272   2.057   2.107   1.985   2.004   1.995   1.938   1.956   1.860   2.075   1.994   1.952   1.947   2.090   2.085   2.008   1.822   1.570   1.677   1.760
   125.00    1.891   2.013   2.047   2.050   2.151   2.183   2.161   2.169   2.224   2.036   2.189   1.993   1.804   1.803   1.959   2.027   2.104   2.000   1.996   1.975   1.910   1.814   1.698   1.725   1.555
   112.50    1.893   1.884   1.998   1.821   2.077   2.256   2.074   2.156   2.050   2.283   2.244   2.189   1.968   1.807   1.940   2.182   2.147   2.027   2.012   1.809   1.791   1.862   1.791   1.751   1.744
   100.00    1.857   1.832   1.729   1.880   1.916   2.151   2.027   1.954   2.104   2.273   2.356   2.263   2.196   2.091   2.173   2.131   2.110   1.887   1.830   1.678   1.740   1.730   1.782   1.760   1.768
    87.50    1.871   1.798   1.659   1.756   1.963   2.010   2.048   2.127   2.177   1.972   2.219   2.233   2.223   2.235   2.148   2.205   2.143   1.964   1.796   1.772   1.793   1.753   1.804   1.758   1.743
    75.00    1.794   1.792   1.792   1.796   1.862   1.935   2.002   1.977   1.930   1.979   2.091   2.059   1.999   2.048   2.013   2.065   1.940   1.922   1.801   1.766   1.889   1.793   1.651   1.695   1.670
    62.50    2.001   1.840   1.813   1.912   1.884   1.873   1.916   1.861   1.823   2.034   2.096   1.934   1.926   2.046   2.128   2.031   1.922   1.887   1.907   1.844   1.752   1.628   1.647   1.719   1.634
    50.00    2.093   2.076   1.928   2.095   2.006   2.102   1.865   2.018   1.831   1.843   2.034   1.992   1.859   2.004   1.953   1.823   1.913   1.897   1.832   1.803   1.726   1.687   1.733   1.704   1.647
    37.50    2.001   2.176   2.101   2.095   1.993   2.072   1.914   1.992   1.944   1.818   1.876   1.858   1.866   1.880   1.909   1.886   2.002   2.003   1.799   1.768   1.774   1.565   1.622   1.618   1.713
    25.00    2.126   2.091   2.227   2.087   2.015   2.114   2.125   1.918   1.780   1.870   1.884   1.907   1.760   1.734   1.768   1.974   1.946   1.959   1.925   1.755   1.795   1.613   1.645   1.714   1.853
    12.50    2.028   2.065   1.875   1.827   1.950   2.011   1.900   1.846   1.780   1.939   1.969   1.981   1.969   1.942   1.882   1.933   1.847   1.843   1.802   1.756   1.771   1.728   1.643   1.739   1.845
     0.00    1.958   1.856   1.756   1.829   1.861   1.873   1.854   1.870   1.952   2.037   2.089   2.068   1.933   1.861   1.954   1.904   1.805   1.846   1.708   1.807   2.025   1.985   1.868   1.794   1.950

   Height   Standard deviation at grid points for the v component:
   300.00    1.601   1.601   1.601   1.601   1.601   1.601   1.601   1.601   1.601   1.601   1.601   1.601   1.601   1.601   1.601   1.601   1.601   1.601   1.601   1.601   1.601   1.601   1.601   1.601   1.601
   287.50    1.601   1.601   1.601   1.601   1.601   1.601   1.601   1.601   1.601   1.601   1.601   1.601   1.601   1.601   1.601   1.601   1.601   1.601   1.601   1.601   1.601   1.601   1.601   1.601   1.601
   275.00    1.601   1.601   1.601   1.601   1.601   1.601   1.601   1.601   1.601   1.601   1.601   1.601   1.601   1.601   1.601   1.601   1.601   1.601   1.601   1.601   1.601   1.601   1.601   1.601   1.601
   262.50    1.601   1.601   1.601   1.601   1.601   1.601   1.601   1.601   1.601   1.601   1.601   1.601   1.601   1.601   1.601   1.601   1.601   1.601   1.601   1.601   1.601   1.601   1.601   1.601   1.601
   250.00    1.601   1.601   1.601   1.601   1.601   1.601   1.601   1.601   1.601   1.601   1.601   1.601   1.601   1.601   1.601   1.601   1.601   1.601   1.601   1.601   1.601   1.601   1.601   1.601   1.601
   237.50    1.601   1.601   1.601   1.601   1.601   1.601   1.601   1.601   1.601   1.601   1.601   1.601   1.601   1.601   1.601   1.601   1.601   1.601   1.601   1.601   1.601   1.601   1.601   1.601   1.601
   225.00    1.601   1.601   1.601   1.601   1.601   1.601   1.601   1.601   1.601   1.601   1.601   1.601   1.601   1.601   1.601   1.601   1.601   1.601   1.601   1.601   1.601   1.601   1.601   1.601   1.601
   212.50    1.601   1.601   1.601   1.601   1.601   1.601   1.601   1.601   1.601   1.601   1.601   1.601   1.601   1.601   1.601   1.601   1.601   1.601   1.601   1.601   1.601   1.601   1.601   1.601   1.601
   200.00    1.601   1.601   1.601   1.601   1.601   1.601   1.601   1.601   1.601   1.601   1.601   1.601   1.601   1.601   1.601   1.601   1.601   1.601   1.601   1.601   1.601   1.601   1.601   1.601   1.601
   187.50    1.601   1.601   1.601   1.601   1.601   1.601   1.601   1.601   1.601   1.601   1.601   1.601   1.601   1.601   1.601   1.601   1.601   1.601   1.601   1.601   1.601   1.601   1.601   1.601   1.601
   175.00    1.601   1.601   1.601   1.601   1.601   1.601   1.601   1.601   1.601   1.601   1.601   1.601   1.601   1.601   1.601   1.601   1.601   1.601   1.601   1.601   1.601   1.601   1.601   1.601   1.601
   162.50    1.601   1.601   1.601   1.601   1.601   1.601   1.601   1.601   1.601   1.601   1.601   1.601   1.601   1.601   1.601   1.601   1.601   1.601   1.601   1.601   1.601   1.601   1.601   1.601   1.601
   150.00    1.601   1.601   1.601   1.601   1.601   1.601   1.601   1.601   1.601   1.601   1.601   1.601   1.601   1.601   1.601   1.601   1.601   1.601   1.601   1.601   1.601   1.601   1.601   1.601   1.601
   137.50    1.601   1.601   1.601   1.601   1.601   1.601   1.601   1.601   1.601   1.601   1.601   1.601   1.601   1.601   1.601   1.601   1.601   1.601   1.601   1.601   1.601   1.601   1.601   1.601   1.601
   125.00    1.601   1.601   1.601   1.601   1.601   1.601   1.601   1.601   1.601   1.601   1.601   1.601   1.601   1.601   1.601   1.601   1.601   1.601   1.601   1.601   1.601   1.601   1.601   1.601   1.601
   112.50    1.601   1.601   1.601   1.601   1.601   1.601   1.601   1.601   1.601   1.601   1.601   1.601   1.601   1.601   1.601   1.601   1.601   1.601   1.601   1.601   1.601   1.601   1.601   1.601   1.601
   100.00    1.601   1.601   1.601   1.601   1.601   1.601   1.601   1.601   1.601   1.601   1.601   1.601   1.601   1.601   1.601   1.601   1.601   1.601   1.601   1.601   1.601   1.601   1.601   1.601   1.601
    87.50    1.601   1.601   1.601   1.601   1.601   1.601   1.601   1.601   1.601   1.601   1.601   1.601   1.601   1.601   1.601   1.601   1.601   1.601   1.601   1.601   1.601   1.601   1.601   1.601   1.601
    75.00    1.601   1.601   1.601   1.601   1.601   1.601   1.601   1.601   1.601   1.601   1.601   1.601   1.601   1.601   1.601   1.601   1.601   1.601   1.601   1.601   1.601   1.601   1.601   1.601   1.601
    62.50    1.601   1.601   1.601   1.601   1.601   1.601   1.601   1.601   1.601   1.601   1.601   1.601   1.601   1.601   1.601   1.601   1.601   1.601   1.601   1.601   1.601   1.601   1.601   1.601   1.601
    50.00    1.601   1.601   1.601   1.601   1.601   1.601   1.601   1.601   1.601   1.601   1.601   1.601   1.601   1.601   1.601   1.601   1.601   1.601   1.601   1.601   1.601   1.601   1.601   1.601   1.601
    37.50    1.601   1.601   1.601   1.601   1.601   1.601   1.601   1.601   1.601   1.601   1.601   1.601   1.601   1.601   1.601   1.601   1.601   1.601   1.601   1.601   1.601   1.601   1.601   1.601   1.601
    25.00    1.601   1.601   1.601   1.601   1.601   1.601   1.601   1.601   1.601   1.601   1.601   1.601   1.601   1.601   1.601   1.601   1.601   1.601   1.601   1.601   1.601   1.601   1.601   1.601   1.601
    12.50    1.601   1.601   1.601   1.601   1.601   1.601   1.601   1.601   1.601   1.601   1.601   1.601   1.601   1.601   1.601   1.601   1.601   1.601   1.601   1.601   1.601   1.601   1.601   1.601   1.601
     0.00    1.601   1.601   1.601   1.601   1.601   1.601   1.601   1.601   1.601   1.601   1.601   1.601   1.601   1.601   1.601   1.601   1.601   1.601   1.601   1.601   1.601   1.601   1.601   1.601   1.601

   Height   Standard deviation at grid points for the w component:
   300.00    0.999   0.999   0.999   0.999   0.999   0.999   0.999   0.999   0.999   0.999   0.999   0.999   0.999   0.999   0.999   0.999   0.999   0.999   0.999   0.999   0.999   0.999   0.999   0.999   0.999
   287.50    0.999   0.999   0.999   0.999   0.999   0.999   0.999   0.999   0.999   0.999   0.999   0.999   0.999   0.999   0.999   0.999   0.999   0.999   0.999   0.999   0.999   0.999   0.999   0.999   0.999
   275.00    0.999   0.999   0.999   0.999   0.999   0.999   0.999   0.999   0.999   0.999   0.999   0.999   0.999   0.999   0.999   0.999   0.999   0.999   0.999   0.999   0.999   0.999   0.999   0.999   0.999
   262.50    0.999   0.999   0.999   0.999   0.999   0.999   0.999   0.999   0.999   0.999   0.999   0.999   0.999   0.999   0.999   0.999   0.999   0.999   0.999   0.999   0.999   0.999   0.999   0.999   0.999
   250.00    0.999   0.999   0.999   0.999   0.999   0.999   0.999   0.999   0.999   0.999   0.999   0.999   0.999   0.999   0.999   0.999   0.999   0.999   0.999   0.999   0.999   0.999   0.999   0.999   0.999
   237.50    0.999   0.999   0.999   0.999   0.999   0.999   0.999   0.999   0.999   0.999   0.999   0.999   0.999   0.999   0.999   0.999   0.999   0.999   0.999   0.999   0.999   0.999   0.999   0.999   0.999
   225.00    0.999   0.999   0.999   0.999   0.999   0.999   0.999   0.999   0.999   0.999   0.999   0.999   0.999   0.999   0.999   0.999   0.999   0.999   0.999   0.999   0.999   0.999   0.999   0.999   0.999
   212.50    0.999   0.999   0.999   0.999   0.999   0.999   0.999   0.999   0.999   0.999   0.999   0.999   0.999   0.999   0.999   0.999   0.999   0.999   0.999   0.999   0.999   0.999   0.999   0.999   0.999
   200.00    0.999   0.999   0.999   0.999   0.999   0.999   0.999   0.999   0.999   0.999   0.999   0.999   0.999   0.999   0.999   0.999   0.999   0.999   0.999   0.999   0.999   0.999   0.999   0.999   0.999
   187.50    0.999   0.999   0.999   0.999   0.999   0.999   0.999   0.999   0.999   0.999   0.999   0.999   0.999   0.999   0.999   0.999   0.999   0.999   0.999   0.999   0.999   0.999   0.999   0.999   0.999
   175.00    0.999   0.999   0.999   0.999   0.999   0.999   0.999   0.999   0.999   0.999   0.999   0.999   0.999   0.999   0.999   0.999   0.999   0.999   0.999   0.999   0.999   0.999   0.999   0.999   0.999
   162.50    0.999   0.999   0.999   0.999   0.999   0.999   0.999   0.999   0.999   0.999   0.999   0.999   0.999   0.999   0.999   0.999   0.999   0.999   0.999   0.999   0.999   0.999   0.999   0.999   0.999
   150.00    0.999   0.999   0.999   0.999   0.999   0.999   0.999   0.999   0.999   0.999   0.999   0.999   0.999   0.999   0.999   0.999   0.999   0.999   0.999   0.999   0.999   0.999   0.999   0.999   0.999
   137.50    0.999   0.999   0.999   0.999   0.999   0.999   0.999   0.999   0.999   0.999   0.999   0.999   0.999   0.999   0.999   0.999   0.999   0.999   0.999   0.999   0.999   0.999   0.999   0.999   0.999
   125.00    0.999   0.999   0.999   0.999   0.999   0.999   0.999   0.999   0.999   0.999   0.999   0.999   0.999   0.999   0.999   0.999   0.999   0.999   0.999   0.999   0.999   0.999   0.999   0.999   0.999
   112.50    0.999   0.999   0.999   0.999   0.999   0.999   0.999   0.999   0.999   0.999   0.999   0.999   0.999   0.999   0.999   0.999   0.999   0.999   0.999   0.999   0.999   0.999   0.999   0.999   0.999
   100.00    0.999   0.999   0.999   0.999   0.999   0.999   0.999   0.999   0.999   0.999   0.999   0.999   0.999   0.999   0.999   0.999   0.999   0.999   0.999   0.999   0.999   0.999   0.999   0.999   0.999
    87.50    0.999   0.999   0.999   0.999   0.999   0.999   0.999   0.999   0.999   0.999   0.999   0.999   0.999   0.999   0.999   0.999   0.999   0.999   0.999   0.999   0.999   0.999   0.999   0.999   0.999
    75.00    0.999   0.999   0.999   0.999   0.999   0.999   0.999   0.999   0.999   0.999   0.999   0.999   0.999   0.999   0.999   0.999   0.999   0.999   0.999   0.999   0.999   0.999   0.999   0.999   0.999
    62.50    0.999   0.999   0.999   0.999   0.999   0.999   0.999   0.999   0.999   0.999   0.999   0.999   0.999   0.999   0.999   0.999   0.999   0.999   0.999   0.999   0.999   0.999   0.999   0.999   0.999
    50.00    0.999   0.999   0.999   0.999   0.999   0.999   0.999   0.999   0.999   0.999   0.999   0.999   0.999   0.999   0.999   0.999   0.999   0.999   0.999   0.999   0.999   0.999   0.999   0.999   0.999
    37.50    0.999   0.999   0.999   0.999   0.999   0.999   0.999   0.999   0.999   0.999   0.999   0.999   0.999   0.999   0.999   0.999   0.999   0.999   0.999   0.999   0.999   0.999   0.999   0.999   0.999
    25.00    0.999   0.999   0.999   0.999   0.999   0.999   0.999   0.999   0.999   0.999   0.999   0.999   0.999   0.999   0.999   0.999   0.999   0.999   0.999   0.999   0.999   0.999   0.999   0.999   0.999
    12.50    0.999   0.999   0.999   0.999   0.999   0.999   0.999   0.999   0.999   0.999   0.999   0.999   0.999   0.999   0.999   0.999   0.999   0.999   0.999   0.999   0.999   0.999   0.999   0.999   0.999
     0.00    0.999   0.999   0.999   0.999   0.999   0.999   0.999   0.999   0.999   0.999   0.999   0.999   0.999   0.999   0.999   0.999   0.999   0.999   0.999   0.999   0.999   0.999   0.999   0.999   0.999

   Mean standard deviation across all grid points:
      u component:    1.915 m/s
      v component:    1.601 m/s
      w component:    0.999 m/s


U-component (X) statistics from the interpolated hub point:

   Mean =  12.0000 m/s
   TI   =  16.1554 %


Processing complete.  1080.6 CPU seconds used.
