
This summary file was generated by TurbSim (from OpenFAST-v4.0.3) on 17-Apr-2025 at 14:57:37.


Runtime Options:

1501552846  Random seed #1
    RANLUX  Type of random number generator
         F  Output binary HH turbulence parameters?
         F  Output formatted turbulence parameters?
         F  Output AeroDyn HH files?
         T  Output AeroDyn FF files?
         F  Output BLADED FF files?
         F  Output tower data?
         F  Output HAWC FF files?
         F  Output formatted FF files?
         F  Output coherent turbulence time step file?
 0 -  NONE  IEC turbulence models scaled to exact specified standard deviation


Turbine/Model Specifications:

        25  Vertical grid-point matrix dimension
        25  Horizontal grid-point matrix dimension
     0.050  Time step [seconds]
   700.000  Analysis time [seconds]
   700.000  Usable output time [seconds]
   150.000  Hub height [m]
   299.999  Grid height [m]
   299.999  Grid width [m]
     0.000  Vertical flow angle [degrees]
     0.000  Horizontal flow angle [degrees]


Meteorological Boundary Conditions:

    IECKAI  IEC Kaimal spectral model
         1  IEC standard: IEC 61400-1 Ed. 3: 2005
         B  IEC turbulence characteristic
       NTM  IEC Normal Turbulence Model
       N/A  IEC Extreme Turbulence Model (ETM) "c" parameter [m/s]
       PL   Wind profile type
   150.000  Reference height [m]
     8.000  Reference wind speed [m/s]
       N/A  Jet height [m]
     0.120  Power law exponent
     0.030  Surface roughness length [m]


Non-IEC Meteorological Boundary Conditions:

       N/A  Site latitude [degrees]
       N/A  Gradient Richardson number
       N/A  Friction or shear velocity [m/s]
       N/A  Mixing layer depth [m]
       N/A  Mean hub u'w' Reynolds stress
       N/A  Mean hub u'v' Reynolds stress
       N/A  Mean hub v'w' Reynolds stress


Spatial Coherence Models:

       IEC  u-component coherence model
      NONE  v-component coherence model
      NONE  w-component coherence model
(   12.000, 0.353E-03)  u-component coherence parameters
                   N/A  v-component coherence parameters
                   N/A  w-component coherence parameters
       N/A  Coherence exponent


You have requested that the following file(s) be generated:

   weis_job_NTM_U8.000000_Seed1501552846.0.bts (AeroDyn/TurbSim full-field wind file)


Turbulence Simulation Scaling Parameter Summary:

   Turbulence model used                            =  IEC Kaimal
   Turbulence characteristic                        =  B
   IEC turbulence type                              =  Normal Turbulence Model
   IEC standard                                     =  IEC 61400-1 Ed. 3: 2005
   Mean wind speed at hub height                    =    8.000 m/s
   Expected value of turbulence intensity at 15 m/s =   14.000%
   Characteristic value of standard deviation       =    1.624 m/s
   Turbulence scale                                 =   42.000 m
   u-component integral scale                       =  340.200 m
   Coherency scale                                  =  340.200 m
   Characteristic value of hub turbulence intensity =   20.300%
   Gradient Richardson number                       =    0.000

   Wind profile type                                =  Power law
   Power law exponent                               =    0.120
   Mean shear across rotor disk                     =    0.023 (m/s)/m
   Assumed rotor diameter                           =  299.999 m
   Surface roughness length                         =    0.030 m

   Nyquist frequency of turbulent wind field        =   10.000 Hz

   Number of time steps in the FFT                  =    14000
   Number of time steps output                      =    14000
   Number of points simulated                       =      625


Mean Flow Angles:

   Vertical   =   0.0 degrees
   Horizontal =   0.0 degrees

Mean Wind Speed Profile:

   Height    Wind Speed   Horizontal Angle  Vertical Angle  U-comp (X)   V-comp (Y)   W-comp (Z)
     (m)        (m/s)         (degrees)       (degrees)       (m/s)        (m/s)        (m/s)   
   ------    ----------   ----------------  --------------  ----------   ----------   ----------
    300.0        8.69            0.00            0.00          8.69         0.00         0.00
    287.5        8.65            0.00            0.00          8.65         0.00         0.00
    275.0        8.60            0.00            0.00          8.60         0.00         0.00
    262.5        8.56            0.00            0.00          8.56         0.00         0.00
    250.0        8.51            0.00            0.00          8.51         0.00         0.00
    237.5        8.45            0.00            0.00          8.45         0.00         0.00
    225.0        8.40            0.00            0.00          8.40         0.00         0.00
    212.5        8.34            0.00            0.00          8.34         0.00         0.00
    200.0        8.28            0.00            0.00          8.28         0.00         0.00
    187.5        8.22            0.00            0.00          8.22         0.00         0.00
    175.0        8.15            0.00            0.00          8.15         0.00         0.00
    162.5        8.08            0.00            0.00          8.08         0.00         0.00
    150.0        8.00            0.00            0.00          8.00         0.00         0.00
    137.5        7.92            0.00            0.00          7.92         0.00         0.00
    125.0        7.83            0.00            0.00          7.83         0.00         0.00
    112.5        7.73            0.00            0.00          7.73         0.00         0.00
    100.0        7.62            0.00            0.00          7.62         0.00         0.00
     87.5        7.50            0.00            0.00          7.50         0.00         0.00
     75.0        7.36            0.00            0.00          7.36         0.00         0.00
     62.5        7.20            0.00            0.00          7.20         0.00         0.00
     50.0        7.01            0.00            0.00          7.01         0.00         0.00
     37.5        6.77            0.00            0.00          6.77         0.00         0.00
     25.0        6.45            0.00            0.00          6.45         0.00         0.00
     12.5        5.94            0.00            0.00          5.94         0.00         0.00
      0.0        1.77            0.00            0.00          1.77         0.00         0.00


Harvested Random Seeds after Generation of the Random Numbers:

    121953125 K 1
            0 K 2


Hub-Height Simulated Turbulence Statistical Summary:

   Type of Wind        Min (m/s)   Mean (m/s)    Max (m/s)  Sigma (m/s)       TI (%)
   ----------------    ---------   ----------    ---------  -----------       ------
   Longitudinal (u)         2.19         8.00        13.68        1.599       19.986
   Lateral (v)             -3.68         0.00         4.96        1.266       15.827
   Vertical (w)            -2.91        -0.00         3.03        0.796        9.954
   U component              2.19         8.00        13.68        1.599       19.986
   V component             -3.68         0.00         4.96        1.266       15.827
   W component             -2.91        -0.00         3.03        0.796        9.954
   Horizontal (U&V)         2.61         8.11        13.76        1.569       19.362
   Total                    2.62         8.15        13.79        1.564       19.201

                       Min Reynolds     Mean Reynolds    Max Reynolds    Correlation
   Product             Stress (m/s)^2   Stress (m/s)^2   Stress (m/s)^2  Coefficient
   ----------------    --------------   --------------   --------------  -----------
   u'w'                     -5.645            -0.003             9.934        -0.002
   u'v'                    -19.979            -0.043            10.438        -0.021
   v'w'                     -9.551             0.008             5.958         0.008


   Friction Velocity (Ustar)  =      0.053 m/s
   Maximum Instantaneous TKE  =     20.805 (m/s)^2
   Maximum Instantaneous CTKE =     10.321 (m/s)^2


Grid Point Variance Summary:

   Y-coord -150.00 -137.50 -125.00 -112.50 -100.00  -87.50  -75.00  -62.50  -50.00  -37.50  -25.00  -12.50    0.00   12.50   25.00   37.50   50.00   62.50   75.00   87.50  100.00  112.50  125.00  137.50  150.00

   Height   Standard deviation at grid points for the u component:
   300.00    1.464   1.489   1.597   1.593   1.606   1.475   1.456   1.410   1.435   1.484   1.396   1.510   1.368   1.483   1.499   1.540   1.362   1.330   1.379   1.330   1.239   1.193   1.251   1.408   1.493
   287.50    1.457   1.516   1.449   1.523   1.498   1.433   1.566   1.460   1.292   1.393   1.463   1.510   1.450   1.538   1.488   1.432   1.421   1.435   1.354   1.463   1.375   1.322   1.353   1.445   1.550
   275.00    1.588   1.650   1.599   1.467   1.479   1.405   1.519   1.579   1.553   1.400   1.524   1.498   1.482   1.522   1.560   1.377   1.343   1.443   1.495   1.547   1.570   1.473   1.434   1.613   1.768
   262.50    1.553   1.545   1.506   1.381   1.499   1.485   1.426   1.575   1.320   1.355   1.413   1.287   1.385   1.317   1.343   1.231   1.312   1.400   1.487   1.478   1.526   1.588   1.605   1.612   1.658
   250.00    1.510   1.507   1.475   1.534   1.599   1.562   1.667   1.540   1.478   1.434   1.439   1.293   1.291   1.237   1.197   1.231   1.164   1.232   1.427   1.506   1.528   1.490   1.622   1.702   1.567
   237.50    1.607   1.688   1.678   1.633   1.786   1.827   1.780   1.708   1.405   1.324   1.358   1.159   1.265   1.290   1.279   1.198   1.197   1.285   1.440   1.593   1.563   1.504   1.449   1.494   1.541
   225.00    1.680   1.823   1.837   1.773   1.603   1.853   1.883   1.870   1.618   1.532   1.408   1.356   1.360   1.295   1.245   1.221   1.317   1.532   1.557   1.479   1.395   1.389   1.356   1.398   1.418
   212.50    1.617   1.626   1.825   1.658   1.588   1.807   1.837   1.693   1.713   1.648   1.460   1.508   1.416   1.392   1.197   1.150   1.338   1.471   1.574   1.501   1.409   1.531   1.285   1.389   1.344
   200.00    1.652   1.690   1.692   1.824   1.765   1.794   1.745   1.724   1.709   1.583   1.519   1.402   1.326   1.366   1.257   1.126   1.256   1.291   1.466   1.478   1.402   1.448   1.445   1.443   1.562
   187.50    1.607   1.726   1.650   1.583   1.590   1.662   1.626   1.610   1.513   1.588   1.544   1.418   1.380   1.335   1.173   1.204   1.205   1.290   1.326   1.528   1.448   1.596   1.507   1.470   1.546
   175.00    1.769   1.742   1.700   1.635   1.608   1.800   1.701   1.566   1.586   1.617   1.660   1.545   1.332   1.209   1.124   1.240   1.187   1.238   1.364   1.376   1.436   1.570   1.500   1.432   1.432
   162.50    1.787   1.805   1.598   1.625   1.726   1.881   1.722   1.672   1.674   1.514   1.546   1.460   1.531   1.389   1.206   1.243   1.295   1.276   1.380   1.306   1.419   1.575   1.534   1.480   1.297
   150.00    1.607   1.549   1.451   1.527   1.617   1.761   1.864   1.690   1.703   1.628   1.440   1.558   1.599   1.331   1.314   1.417   1.321   1.264   1.255   1.361   1.427   1.504   1.514   1.546   1.444
   137.50    1.541   1.535   1.702   1.607   1.573   1.660   1.741   1.654   1.649   1.607   1.350   1.451   1.488   1.453   1.514   1.495   1.349   1.271   1.243   1.385   1.529   1.501   1.511   1.500   1.480
   125.00    1.638   1.583   1.595   1.581   1.750   1.898   1.724   1.629   1.557   1.487   1.562   1.597   1.453   1.461   1.541   1.451   1.475   1.507   1.451   1.408   1.666   1.506   1.491   1.513   1.422
   112.50    1.539   1.566   1.584   1.596   1.735   1.840   1.775   1.599   1.552   1.594   1.755   1.671   1.489   1.405   1.427   1.403   1.424   1.381   1.381   1.509   1.502   1.578   1.681   1.506   1.400
   100.00    1.555   1.554   1.652   1.667   1.764   1.838   1.749   1.634   1.639   1.653   1.724   1.594   1.543   1.488   1.319   1.436   1.396   1.306   1.392   1.413   1.514   1.630   1.566   1.481   1.533
    87.50    1.543   1.544   1.441   1.618   1.668   1.599   1.729   1.801   1.689   1.645   1.777   1.754   1.644   1.457   1.519   1.366   1.365   1.326   1.320   1.323   1.197   1.309   1.405   1.479   1.385
    75.00    1.370   1.368   1.566   1.568   1.405   1.573   1.693   1.735   1.714   1.636   1.604   1.541   1.527   1.484   1.452   1.361   1.326   1.326   1.331   1.331   1.152   1.213   1.264   1.371   1.397
    62.50    1.424   1.442   1.524   1.424   1.420   1.533   1.687   1.580   1.487   1.661   1.491   1.551   1.612   1.512   1.460   1.356   1.543   1.417   1.330   1.322   1.249   1.311   1.306   1.229   1.332
    50.00    1.577   1.485   1.314   1.557   1.519   1.492   1.635   1.517   1.486   1.563   1.711   1.688   1.608   1.546   1.447   1.603   1.548   1.426   1.452   1.299   1.323   1.339   1.410   1.326   1.362
    37.50    1.661   1.541   1.482   1.487   1.415   1.528   1.652   1.693   1.686   1.653   1.697   1.769   1.741   1.633   1.622   1.704   1.631   1.556   1.452   1.360   1.257   1.329   1.457   1.409   1.536
    25.00    1.513   1.719   1.608   1.536   1.511   1.684   1.610   1.653   1.667   1.624   1.628   1.717   1.707   1.606   1.635   1.537   1.545   1.516   1.420   1.326   1.304   1.374   1.425   1.414   1.537
    12.50    1.465   1.633   1.523   1.450   1.394   1.612   1.536   1.563   1.454   1.472   1.598   1.681   1.622   1.501   1.406   1.563   1.537   1.446   1.451   1.423   1.363   1.444   1.521   1.425   1.569
     0.00    1.528   1.505   1.367   1.257   1.282   1.292   1.468   1.529   1.634   1.546   1.646   1.520   1.469   1.460   1.453   1.381   1.327   1.456   1.540   1.516   1.491   1.397   1.451   1.325   1.450

   Height   Standard deviation at grid points for the v component:
   300.00    1.266   1.266   1.266   1.266   1.266   1.266   1.266   1.266   1.266   1.266   1.266   1.266   1.266   1.266   1.266   1.266   1.266   1.266   1.266   1.266   1.266   1.266   1.266   1.266   1.266
   287.50    1.266   1.266   1.266   1.266   1.266   1.266   1.266   1.266   1.266   1.266   1.266   1.266   1.266   1.266   1.266   1.266   1.266   1.266   1.266   1.266   1.266   1.266   1.266   1.266   1.266
   275.00    1.266   1.266   1.266   1.266   1.266   1.266   1.266   1.266   1.266   1.266   1.266   1.266   1.266   1.266   1.266   1.266   1.266   1.266   1.266   1.266   1.266   1.266   1.266   1.266   1.266
   262.50    1.266   1.266   1.266   1.266   1.266   1.266   1.266   1.266   1.266   1.266   1.266   1.266   1.266   1.266   1.266   1.266   1.266   1.266   1.266   1.266   1.266   1.266   1.266   1.266   1.266
   250.00    1.266   1.266   1.266   1.266   1.266   1.266   1.266   1.266   1.266   1.266   1.266   1.266   1.266   1.266   1.266   1.266   1.266   1.266   1.266   1.266   1.266   1.266   1.266   1.266   1.266
   237.50    1.266   1.266   1.266   1.266   1.266   1.266   1.266   1.266   1.266   1.266   1.266   1.266   1.266   1.266   1.266   1.266   1.266   1.266   1.266   1.266   1.266   1.266   1.266   1.266   1.266
   225.00    1.266   1.266   1.266   1.266   1.266   1.266   1.266   1.266   1.266   1.266   1.266   1.266   1.266   1.266   1.266   1.266   1.266   1.266   1.266   1.266   1.266   1.266   1.266   1.266   1.266
   212.50    1.266   1.266   1.266   1.266   1.266   1.266   1.266   1.266   1.266   1.266   1.266   1.266   1.266   1.266   1.266   1.266   1.266   1.266   1.266   1.266   1.266   1.266   1.266   1.266   1.266
   200.00    1.266   1.266   1.266   1.266   1.266   1.266   1.266   1.266   1.266   1.266   1.266   1.266   1.266   1.266   1.266   1.266   1.266   1.266   1.266   1.266   1.266   1.266   1.266   1.266   1.266
   187.50    1.266   1.266   1.266   1.266   1.266   1.266   1.266   1.266   1.266   1.266   1.266   1.266   1.266   1.266   1.266   1.266   1.266   1.266   1.266   1.266   1.266   1.266   1.266   1.266   1.266
   175.00    1.266   1.266   1.266   1.266   1.266   1.266   1.266   1.266   1.266   1.266   1.266   1.266   1.266   1.266   1.266   1.266   1.266   1.266   1.266   1.266   1.266   1.266   1.266   1.266   1.266
   162.50    1.266   1.266   1.266   1.266   1.266   1.266   1.266   1.266   1.266   1.266   1.266   1.266   1.266   1.266   1.266   1.266   1.266   1.266   1.266   1.266   1.266   1.266   1.266   1.266   1.266
   150.00    1.266   1.266   1.266   1.266   1.266   1.266   1.266   1.266   1.266   1.266   1.266   1.266   1.266   1.266   1.266   1.266   1.266   1.266   1.266   1.266   1.266   1.266   1.266   1.266   1.266
   137.50    1.266   1.266   1.266   1.266   1.266   1.266   1.266   1.266   1.266   1.266   1.266   1.266   1.266   1.266   1.266   1.266   1.266   1.266   1.266   1.266   1.266   1.266   1.266   1.266   1.266
   125.00    1.266   1.266   1.266   1.266   1.266   1.266   1.266   1.266   1.266   1.266   1.266   1.266   1.266   1.266   1.266   1.266   1.266   1.266   1.266   1.266   1.266   1.266   1.266   1.266   1.266
   112.50    1.266   1.266   1.266   1.266   1.266   1.266   1.266   1.266   1.266   1.266   1.266   1.266   1.266   1.266   1.266   1.266   1.266   1.266   1.266   1.266   1.266   1.266   1.266   1.266   1.266
   100.00    1.266   1.266   1.266   1.266   1.266   1.266   1.266   1.266   1.266   1.266   1.266   1.266   1.266   1.266   1.266   1.266   1.266   1.266   1.266   1.266   1.266   1.266   1.266   1.266   1.266
    87.50    1.266   1.266   1.266   1.266   1.266   1.266   1.266   1.266   1.266   1.266   1.266   1.266   1.266   1.266   1.266   1.266   1.266   1.266   1.266   1.266   1.266   1.266   1.266   1.266   1.266
    75.00    1.266   1.266   1.266   1.266   1.266   1.266   1.266   1.266   1.266   1.266   1.266   1.266   1.266   1.266   1.266   1.266   1.266   1.266   1.266   1.266   1.266   1.266   1.266   1.266   1.266
    62.50    1.266   1.266   1.266   1.266   1.266   1.266   1.266   1.266   1.266   1.266   1.266   1.266   1.266   1.266   1.266   1.266   1.266   1.266   1.266   1.266   1.266   1.266   1.266   1.266   1.266
    50.00    1.266   1.266   1.266   1.266   1.266   1.266   1.266   1.266   1.266   1.266   1.266   1.266   1.266   1.266   1.266   1.266   1.266   1.266   1.266   1.266   1.266   1.266   1.266   1.266   1.266
    37.50    1.266   1.266   1.266   1.266   1.266   1.266   1.266   1.266   1.266   1.266   1.266   1.266   1.266   1.266   1.266   1.266   1.266   1.266   1.266   1.266   1.266   1.266   1.266   1.266   1.266
    25.00    1.266   1.266   1.266   1.266   1.266   1.266   1.266   1.266   1.266   1.266   1.266   1.266   1.266   1.266   1.266   1.266   1.266   1.266   1.266   1.266   1.266   1.266   1.266   1.266   1.266
    12.50    1.266   1.266   1.266   1.266   1.266   1.266   1.266   1.266   1.266   1.266   1.266   1.266   1.266   1.266   1.266   1.266   1.266   1.266   1.266   1.266   1.266   1.266   1.266   1.266   1.266
     0.00    1.266   1.266   1.266   1.266   1.266   1.266   1.266   1.266   1.266   1.266   1.266   1.266   1.266   1.266   1.266   1.266   1.266   1.266   1.266   1.266   1.266   1.266   1.266   1.266   1.266

   Height   Standard deviation at grid points for the w component:
   300.00    0.796   0.796   0.796   0.796   0.796   0.796   0.796   0.796   0.796   0.796   0.796   0.796   0.796   0.796   0.796   0.796   0.796   0.796   0.796   0.796   0.796   0.796   0.796   0.796   0.796
   287.50    0.796   0.796   0.796   0.796   0.796   0.796   0.796   0.796   0.796   0.796   0.796   0.796   0.796   0.796   0.796   0.796   0.796   0.796   0.796   0.796   0.796   0.796   0.796   0.796   0.796
   275.00    0.796   0.796   0.796   0.796   0.796   0.796   0.796   0.796   0.796   0.796   0.796   0.796   0.796   0.796   0.796   0.796   0.796   0.796   0.796   0.796   0.796   0.796   0.796   0.796   0.796
   262.50    0.796   0.796   0.796   0.796   0.796   0.796   0.796   0.796   0.796   0.796   0.796   0.796   0.796   0.796   0.796   0.796   0.796   0.796   0.796   0.796   0.796   0.796   0.796   0.796   0.796
   250.00    0.796   0.796   0.796   0.796   0.796   0.796   0.796   0.796   0.796   0.796   0.796   0.796   0.796   0.796   0.796   0.796   0.796   0.796   0.796   0.796   0.796   0.796   0.796   0.796   0.796
   237.50    0.796   0.796   0.796   0.796   0.796   0.796   0.796   0.796   0.796   0.796   0.796   0.796   0.796   0.796   0.796   0.796   0.796   0.796   0.796   0.796   0.796   0.796   0.796   0.796   0.796
   225.00    0.796   0.796   0.796   0.796   0.796   0.796   0.796   0.796   0.796   0.796   0.796   0.796   0.796   0.796   0.796   0.796   0.796   0.796   0.796   0.796   0.796   0.796   0.796   0.796   0.796
   212.50    0.796   0.796   0.796   0.796   0.796   0.796   0.796   0.796   0.796   0.796   0.796   0.796   0.796   0.796   0.796   0.796   0.796   0.796   0.796   0.796   0.796   0.796   0.796   0.796   0.796
   200.00    0.796   0.796   0.796   0.796   0.796   0.796   0.796   0.796   0.796   0.796   0.796   0.796   0.796   0.796   0.796   0.796   0.796   0.796   0.796   0.796   0.796   0.796   0.796   0.796   0.796
   187.50    0.796   0.796   0.796   0.796   0.796   0.796   0.796   0.796   0.796   0.796   0.796   0.796   0.796   0.796   0.796   0.796   0.796   0.796   0.796   0.796   0.796   0.796   0.796   0.796   0.796
   175.00    0.796   0.796   0.796   0.796   0.796   0.796   0.796   0.796   0.796   0.796   0.796   0.796   0.796   0.796   0.796   0.796   0.796   0.796   0.796   0.796   0.796   0.796   0.796   0.796   0.796
   162.50    0.796   0.796   0.796   0.796   0.796   0.796   0.796   0.796   0.796   0.796   0.796   0.796   0.796   0.796   0.796   0.796   0.796   0.796   0.796   0.796   0.796   0.796   0.796   0.796   0.796
   150.00    0.796   0.796   0.796   0.796   0.796   0.796   0.796   0.796   0.796   0.796   0.796   0.796   0.796   0.796   0.796   0.796   0.796   0.796   0.796   0.796   0.796   0.796   0.796   0.796   0.796
   137.50    0.796   0.796   0.796   0.796   0.796   0.796   0.796   0.796   0.796   0.796   0.796   0.796   0.796   0.796   0.796   0.796   0.796   0.796   0.796   0.796   0.796   0.796   0.796   0.796   0.796
   125.00    0.796   0.796   0.796   0.796   0.796   0.796   0.796   0.796   0.796   0.796   0.796   0.796   0.796   0.796   0.796   0.796   0.796   0.796   0.796   0.796   0.796   0.796   0.796   0.796   0.796
   112.50    0.796   0.796   0.796   0.796   0.796   0.796   0.796   0.796   0.796   0.796   0.796   0.796   0.796   0.796   0.796   0.796   0.796   0.796   0.796   0.796   0.796   0.796   0.796   0.796   0.796
   100.00    0.796   0.796   0.796   0.796   0.796   0.796   0.796   0.796   0.796   0.796   0.796   0.796   0.796   0.796   0.796   0.796   0.796   0.796   0.796   0.796   0.796   0.796   0.796   0.796   0.796
    87.50    0.796   0.796   0.796   0.796   0.796   0.796   0.796   0.796   0.796   0.796   0.796   0.796   0.796   0.796   0.796   0.796   0.796   0.796   0.796   0.796   0.796   0.796   0.796   0.796   0.796
    75.00    0.796   0.796   0.796   0.796   0.796   0.796   0.796   0.796   0.796   0.796   0.796   0.796   0.796   0.796   0.796   0.796   0.796   0.796   0.796   0.796   0.796   0.796   0.796   0.796   0.796
    62.50    0.796   0.796   0.796   0.796   0.796   0.796   0.796   0.796   0.796   0.796   0.796   0.796   0.796   0.796   0.796   0.796   0.796   0.796   0.796   0.796   0.796   0.796   0.796   0.796   0.796
    50.00    0.796   0.796   0.796   0.796   0.796   0.796   0.796   0.796   0.796   0.796   0.796   0.796   0.796   0.796   0.796   0.796   0.796   0.796   0.796   0.796   0.796   0.796   0.796   0.796   0.796
    37.50    0.796   0.796   0.796   0.796   0.796   0.796   0.796   0.796   0.796   0.796   0.796   0.796   0.796   0.796   0.796   0.796   0.796   0.796   0.796   0.796   0.796   0.796   0.796   0.796   0.796
    25.00    0.796   0.796   0.796   0.796   0.796   0.796   0.796   0.796   0.796   0.796   0.796   0.796   0.796   0.796   0.796   0.796   0.796   0.796   0.796   0.796   0.796   0.796   0.796   0.796   0.796
    12.50    0.796   0.796   0.796   0.796   0.796   0.796   0.796   0.796   0.796   0.796   0.796   0.796   0.796   0.796   0.796   0.796   0.796   0.796   0.796   0.796   0.796   0.796   0.796   0.796   0.796
     0.00    0.796   0.796   0.796   0.796   0.796   0.796   0.796   0.796   0.796   0.796   0.796   0.796   0.796   0.796   0.796   0.796   0.796   0.796   0.796   0.796   0.796   0.796   0.796   0.796   0.796

   Mean standard deviation across all grid points:
      u component:    1.500 m/s
      v component:    1.266 m/s
      w component:    0.796 m/s


U-component (X) statistics from the interpolated hub point:

   Mean =   8.0000 m/s
   TI   =  19.9857 %


Processing complete.  1219.6 CPU seconds used.
