
This summary file was generated by TurbSim (from OpenFAST-v4.0.3) on 22-Apr-2025 at 15:44:10.


Runtime Options:

 488200390  Random seed #1
    RANLUX  Type of random number generator
         F  Output binary HH turbulence parameters?
         F  Output formatted turbulence parameters?
         F  Output AeroDyn HH files?
         T  Output AeroDyn FF files?
         F  Output BLADED FF files?
         F  Output tower data?
         F  Output HAWC FF files?
         F  Output formatted FF files?
         F  Output coherent turbulence time step file?
 0 -  NONE  IEC turbulence models scaled to exact specified standard deviation


Turbine/Model Specifications:

        25  Vertical grid-point matrix dimension
        25  Horizontal grid-point matrix dimension
     0.050  Time step [seconds]
   700.000  Analysis time [seconds]
   700.000  Usable output time [seconds]
   150.000  Hub height [m]
   299.999  Grid height [m]
   299.999  Grid width [m]
     0.000  Vertical flow angle [degrees]
     0.000  Horizontal flow angle [degrees]


Meteorological Boundary Conditions:

    IECKAI  IEC Kaimal spectral model
         1  IEC standard: IEC 61400-1 Ed. 3: 2005
         B  IEC turbulence characteristic
       NTM  IEC Normal Turbulence Model
       N/A  IEC Extreme Turbulence Model (ETM) "c" parameter [m/s]
       PL   Wind profile type
   150.000  Reference height [m]
    10.000  Reference wind speed [m/s]
       N/A  Jet height [m]
     0.120  Power law exponent
     0.030  Surface roughness length [m]


Non-IEC Meteorological Boundary Conditions:

       N/A  Site latitude [degrees]
       N/A  Gradient Richardson number
       N/A  Friction or shear velocity [m/s]
       N/A  Mixing layer depth [m]
       N/A  Mean hub u'w' Reynolds stress
       N/A  Mean hub u'v' Reynolds stress
       N/A  Mean hub v'w' Reynolds stress


Spatial Coherence Models:

       IEC  u-component coherence model
      NONE  v-component coherence model
      NONE  w-component coherence model
(   12.000, 0.353E-03)  u-component coherence parameters
                   N/A  v-component coherence parameters
                   N/A  w-component coherence parameters
       N/A  Coherence exponent


You have requested that the following file(s) be generated:

   weis_job_NTM_U10.000000_Seed488200390.0.bts (AeroDyn/TurbSim full-field wind file)


Turbulence Simulation Scaling Parameter Summary:

   Turbulence model used                            =  IEC Kaimal
   Turbulence characteristic                        =  B
   IEC turbulence type                              =  Normal Turbulence Model
   IEC standard                                     =  IEC 61400-1 Ed. 3: 2005
   Mean wind speed at hub height                    =   10.000 m/s
   Expected value of turbulence intensity at 15 m/s =   14.000%
   Characteristic value of standard deviation       =    1.834 m/s
   Turbulence scale                                 =   42.000 m
   u-component integral scale                       =  340.200 m
   Coherency scale                                  =  340.200 m
   Characteristic value of hub turbulence intensity =   18.340%
   Gradient Richardson number                       =    0.000

   Wind profile type                                =  Power law
   Power law exponent                               =    0.120
   Mean shear across rotor disk                     =    0.029 (m/s)/m
   Assumed rotor diameter                           =  299.999 m
   Surface roughness length                         =    0.030 m

   Nyquist frequency of turbulent wind field        =   10.000 Hz

   Number of time steps in the FFT                  =    14000
   Number of time steps output                      =    14000
   Number of points simulated                       =      625


Mean Flow Angles:

   Vertical   =   0.0 degrees
   Horizontal =   0.0 degrees

Mean Wind Speed Profile:

   Height    Wind Speed   Horizontal Angle  Vertical Angle  U-comp (X)   V-comp (Y)   W-comp (Z)
     (m)        (m/s)         (degrees)       (degrees)       (m/s)        (m/s)        (m/s)   
   ------    ----------   ----------------  --------------  ----------   ----------   ----------
    300.0       10.87            0.00            0.00         10.87         0.00         0.00
    287.5       10.81            0.00            0.00         10.81         0.00         0.00
    275.0       10.75            0.00            0.00         10.75         0.00         0.00
    262.5       10.69            0.00            0.00         10.69         0.00         0.00
    250.0       10.63            0.00            0.00         10.63         0.00         0.00
    237.5       10.57            0.00            0.00         10.57         0.00         0.00
    225.0       10.50            0.00            0.00         10.50         0.00         0.00
    212.5       10.43            0.00            0.00         10.43         0.00         0.00
    200.0       10.35            0.00            0.00         10.35         0.00         0.00
    187.5       10.27            0.00            0.00         10.27         0.00         0.00
    175.0       10.19            0.00            0.00         10.19         0.00         0.00
    162.5       10.10            0.00            0.00         10.10         0.00         0.00
    150.0       10.00            0.00            0.00         10.00         0.00         0.00
    137.5        9.90            0.00            0.00          9.90         0.00         0.00
    125.0        9.78            0.00            0.00          9.78         0.00         0.00
    112.5        9.66            0.00            0.00          9.66         0.00         0.00
    100.0        9.53            0.00            0.00          9.53         0.00         0.00
     87.5        9.37            0.00            0.00          9.37         0.00         0.00
     75.0        9.20            0.00            0.00          9.20         0.00         0.00
     62.5        9.00            0.00            0.00          9.00         0.00         0.00
     50.0        8.76            0.00            0.00          8.76         0.00         0.00
     37.5        8.47            0.00            0.00          8.47         0.00         0.00
     25.0        8.07            0.00            0.00          8.07         0.00         0.00
     12.5        7.42            0.00            0.00          7.42         0.00         0.00
      0.0        2.21            0.00            0.00          2.21         0.00         0.00


Harvested Random Seeds after Generation of the Random Numbers:

    121953125 K 1
            0 K 2


Hub-Height Simulated Turbulence Statistical Summary:

   Type of Wind        Min (m/s)   Mean (m/s)    Max (m/s)  Sigma (m/s)       TI (%)
   ----------------    ---------   ----------    ---------  -----------       ------
   Longitudinal (u)         5.03        10.00        15.08        1.780       17.798
   Lateral (v)             -5.46        -0.00         5.16        1.434       14.342
   Vertical (w)            -3.00        -0.00         3.28        0.898        8.981
   U component              5.03        10.00        15.08        1.780       17.798
   V component             -5.46        -0.00         5.16        1.434       14.342
   W component             -3.00        -0.00         3.28        0.898        8.981
   Horizontal (U&V)         5.05        10.11        15.08        1.758       17.392
   Total                    5.09        10.15        15.14        1.755       17.300

                       Min Reynolds     Mean Reynolds    Max Reynolds    Correlation
   Product             Stress (m/s)^2   Stress (m/s)^2   Stress (m/s)^2  Coefficient
   ----------------    --------------   --------------   --------------  -----------
   u'w'                    -10.146            -0.022            10.254        -0.014
   u'v'                    -15.305            -0.486            13.484        -0.191
   v'w'                    -11.108            -0.131             7.283        -0.102


   Friction Velocity (Ustar)  =      0.149 m/s
   Maximum Instantaneous TKE  =     17.341 (m/s)^2
   Maximum Instantaneous CTKE =      7.952 (m/s)^2


Grid Point Variance Summary:

   Y-coord -150.00 -137.50 -125.00 -112.50 -100.00  -87.50  -75.00  -62.50  -50.00  -37.50  -25.00  -12.50    0.00   12.50   25.00   37.50   50.00   62.50   75.00   87.50  100.00  112.50  125.00  137.50  150.00

   Height   Standard deviation at grid points for the u component:
   300.00    1.441   1.492   1.653   1.470   1.462   1.405   1.588   1.566   1.585   1.501   1.394   1.586   1.625   1.598   1.730   1.719   1.691   1.478   1.397   1.431   1.469   1.648   1.689   1.791   1.617
   287.50    1.495   1.472   1.558   1.589   1.587   1.619   1.552   1.441   1.506   1.625   1.502   1.500   1.630   1.457   1.680   1.698   1.725   1.538   1.465   1.376   1.334   1.552   1.722   1.790   1.704
   275.00    1.525   1.496   1.484   1.542   1.506   1.548   1.435   1.498   1.429   1.647   1.529   1.682   1.558   1.575   1.537   1.647   1.583   1.700   1.650   1.511   1.560   1.583   1.678   1.728   1.817
   262.50    1.369   1.475   1.636   1.633   1.557   1.554   1.461   1.487   1.456   1.439   1.429   1.574   1.647   1.756   1.605   1.835   1.738   1.645   1.639   1.590   1.495   1.669   1.671   1.797   1.784
   250.00    1.414   1.459   1.561   1.619   1.483   1.530   1.537   1.517   1.447   1.335   1.441   1.561   1.753   1.733   1.758   1.665   1.655   1.612   1.640   1.522   1.685   1.806   1.888   1.846   1.744
   237.50    1.520   1.429   1.571   1.677   1.674   1.599   1.555   1.505   1.478   1.613   1.662   1.600   1.563   1.611   1.811   1.599   1.663   1.620   1.511   1.634   1.650   1.733   1.689   1.711   1.574
   225.00    1.520   1.654   1.572   1.598   1.625   1.692   1.528   1.560   1.491   1.599   1.584   1.634   1.709   1.803   1.717   1.774   1.572   1.651   1.568   1.597   1.516   1.520   1.651   1.602   1.644
   212.50    1.682   1.668   1.581   1.729   1.704   1.549   1.567   1.514   1.449   1.649   1.629   1.720   1.585   1.644   1.725   1.731   1.674   1.654   1.610   1.639   1.541   1.488   1.538   1.651   1.649
   200.00    1.728   1.662   1.554   1.604   1.639   1.653   1.661   1.493   1.514   1.730   1.677   1.854   1.785   1.778   1.917   1.780   1.780   1.750   1.650   1.612   1.672   1.452   1.553   1.560   1.578
   187.50    1.773   1.822   1.836   1.790   1.660   1.645   1.682   1.740   1.622   1.793   2.006   1.949   2.006   1.882   1.903   1.807   1.692   1.607   1.631   1.621   1.727   1.582   1.540   1.681   1.509
   175.00    1.812   1.871   1.814   1.801   1.809   1.674   1.833   1.950   1.808   1.791   2.007   1.881   1.962   1.895   1.748   1.737   1.687   1.580   1.683   1.636   1.757   1.694   1.603   1.646   1.736
   162.50    1.688   1.810   1.820   1.747   1.866   1.948   2.009   1.972   1.910   1.936   1.893   1.841   1.904   1.683   1.701   1.760   1.651   1.586   1.650   1.795   1.868   1.758   1.724   1.619   1.643
   150.00    1.627   1.791   1.720   1.688   1.860   1.936   1.987   2.046   2.155   1.930   1.791   1.747   1.780   1.635   1.682   1.671   1.589   1.471   1.591   1.893   1.849   1.817   1.674   1.665   1.678
   137.50    1.678   1.718   1.869   1.700   1.790   2.039   1.973   2.074   1.972   1.826   1.771   1.716   1.722   1.707   1.582   1.674   1.601   1.534   1.547   1.706   1.836   1.800   1.601   1.529   1.544
   125.00    1.704   1.704   1.666   1.691   1.815   2.005   2.002   1.824   1.774   1.790   1.837   1.793   1.782   1.740   1.683   1.678   1.736   1.680   1.628   1.529   1.667   1.759   1.657   1.455   1.625
   112.50    1.677   1.788   1.906   1.681   1.739   1.849   1.929   1.938   1.827   1.700   1.702   1.812   1.778   1.703   1.629   1.661   1.742   1.733   1.593   1.563   1.482   1.710   1.721   1.661   1.707
   100.00    1.709   1.672   1.807   1.882   1.937   1.788   1.786   1.870   1.744   1.779   1.709   1.866   1.818   1.701   1.697   1.839   1.855   1.743   1.708   1.586   1.705   1.675   1.800   1.852   1.866
    87.50    1.694   1.722   1.774   1.812   1.780   1.719   1.860   1.925   1.704   1.812   1.907   1.980   1.794   1.848   1.960   1.994   1.862   1.717   1.674   1.749   1.818   1.826   1.650   1.708   1.713
    75.00    1.756   1.862   1.832   1.979   1.873   1.736   1.770   1.874   1.755   1.879   2.061   2.093   1.948   1.850   1.844   1.897   1.762   1.968   1.859   1.878   1.809   1.772   1.632   1.629   1.730
    62.50    1.814   1.939   1.987   1.972   1.871   1.729   1.744   1.716   1.863   1.892   1.999   1.938   1.759   1.838   1.901   1.815   2.026   1.874   1.938   1.842   1.855   1.745   1.650   1.729   1.711
    50.00    1.693   1.827   1.975   1.940   1.912   1.776   1.785   1.872   1.942   2.214   2.151   1.885   1.848   1.959   1.994   1.853   1.807   2.021   1.897   2.045   1.963   2.001   1.713   1.550   1.588
    37.50    1.593   1.740   1.869   1.887   1.939   1.990   2.037   1.954   2.099   2.098   2.128   1.958   2.050   1.902   1.963   1.965   1.919   2.005   2.066   2.081   1.962   1.764   1.739   1.702   1.506
    25.00    1.704   1.800   1.686   1.844   1.906   1.880   1.914   1.937   1.927   1.967   1.917   2.105   1.958   1.928   2.105   2.027   2.033   2.024   1.932   1.918   1.705   1.706   1.655   1.587   1.519
    12.50    1.827   1.948   1.759   1.751   1.855   1.813   1.978   1.805   1.962   1.985   1.855   2.144   2.026   2.270   2.120   2.083   2.060   1.862   1.917   1.809   1.720   1.647   1.541   1.559   1.557
     0.00    1.744   1.933   1.878   1.858   1.932   1.835   1.987   1.905   1.941   2.096   2.091   2.165   2.071   2.246   2.194   2.084   1.972   1.882   1.744   1.676   1.694   1.656   1.574   1.495   1.506

   Height   Standard deviation at grid points for the v component:
   300.00    1.434   1.434   1.434   1.434   1.434   1.434   1.434   1.434   1.434   1.434   1.434   1.434   1.434   1.434   1.434   1.434   1.434   1.434   1.434   1.434   1.434   1.434   1.434   1.434   1.434
   287.50    1.434   1.434   1.434   1.434   1.434   1.434   1.434   1.434   1.434   1.434   1.434   1.434   1.434   1.434   1.434   1.434   1.434   1.434   1.434   1.434   1.434   1.434   1.434   1.434   1.434
   275.00    1.434   1.434   1.434   1.434   1.434   1.434   1.434   1.434   1.434   1.434   1.434   1.434   1.434   1.434   1.434   1.434   1.434   1.434   1.434   1.434   1.434   1.434   1.434   1.434   1.434
   262.50    1.434   1.434   1.434   1.434   1.434   1.434   1.434   1.434   1.434   1.434   1.434   1.434   1.434   1.434   1.434   1.434   1.434   1.434   1.434   1.434   1.434   1.434   1.434   1.434   1.434
   250.00    1.434   1.434   1.434   1.434   1.434   1.434   1.434   1.434   1.434   1.434   1.434   1.434   1.434   1.434   1.434   1.434   1.434   1.434   1.434   1.434   1.434   1.434   1.434   1.434   1.434
   237.50    1.434   1.434   1.434   1.434   1.434   1.434   1.434   1.434   1.434   1.434   1.434   1.434   1.434   1.434   1.434   1.434   1.434   1.434   1.434   1.434   1.434   1.434   1.434   1.434   1.434
   225.00    1.434   1.434   1.434   1.434   1.434   1.434   1.434   1.434   1.434   1.434   1.434   1.434   1.434   1.434   1.434   1.434   1.434   1.434   1.434   1.434   1.434   1.434   1.434   1.434   1.434
   212.50    1.434   1.434   1.434   1.434   1.434   1.434   1.434   1.434   1.434   1.434   1.434   1.434   1.434   1.434   1.434   1.434   1.434   1.434   1.434   1.434   1.434   1.434   1.434   1.434   1.434
   200.00    1.434   1.434   1.434   1.434   1.434   1.434   1.434   1.434   1.434   1.434   1.434   1.434   1.434   1.434   1.434   1.434   1.434   1.434   1.434   1.434   1.434   1.434   1.434   1.434   1.434
   187.50    1.434   1.434   1.434   1.434   1.434   1.434   1.434   1.434   1.434   1.434   1.434   1.434   1.434   1.434   1.434   1.434   1.434   1.434   1.434   1.434   1.434   1.434   1.434   1.434   1.434
   175.00    1.434   1.434   1.434   1.434   1.434   1.434   1.434   1.434   1.434   1.434   1.434   1.434   1.434   1.434   1.434   1.434   1.434   1.434   1.434   1.434   1.434   1.434   1.434   1.434   1.434
   162.50    1.434   1.434   1.434   1.434   1.434   1.434   1.434   1.434   1.434   1.434   1.434   1.434   1.434   1.434   1.434   1.434   1.434   1.434   1.434   1.434   1.434   1.434   1.434   1.434   1.434
   150.00    1.434   1.434   1.434   1.434   1.434   1.434   1.434   1.434   1.434   1.434   1.434   1.434   1.434   1.434   1.434   1.434   1.434   1.434   1.434   1.434   1.434   1.434   1.434   1.434   1.434
   137.50    1.434   1.434   1.434   1.434   1.434   1.434   1.434   1.434   1.434   1.434   1.434   1.434   1.434   1.434   1.434   1.434   1.434   1.434   1.434   1.434   1.434   1.434   1.434   1.434   1.434
   125.00    1.434   1.434   1.434   1.434   1.434   1.434   1.434   1.434   1.434   1.434   1.434   1.434   1.434   1.434   1.434   1.434   1.434   1.434   1.434   1.434   1.434   1.434   1.434   1.434   1.434
   112.50    1.434   1.434   1.434   1.434   1.434   1.434   1.434   1.434   1.434   1.434   1.434   1.434   1.434   1.434   1.434   1.434   1.434   1.434   1.434   1.434   1.434   1.434   1.434   1.434   1.434
   100.00    1.434   1.434   1.434   1.434   1.434   1.434   1.434   1.434   1.434   1.434   1.434   1.434   1.434   1.434   1.434   1.434   1.434   1.434   1.434   1.434   1.434   1.434   1.434   1.434   1.434
    87.50    1.434   1.434   1.434   1.434   1.434   1.434   1.434   1.434   1.434   1.434   1.434   1.434   1.434   1.434   1.434   1.434   1.434   1.434   1.434   1.434   1.434   1.434   1.434   1.434   1.434
    75.00    1.434   1.434   1.434   1.434   1.434   1.434   1.434   1.434   1.434   1.434   1.434   1.434   1.434   1.434   1.434   1.434   1.434   1.434   1.434   1.434   1.434   1.434   1.434   1.434   1.434
    62.50    1.434   1.434   1.434   1.434   1.434   1.434   1.434   1.434   1.434   1.434   1.434   1.434   1.434   1.434   1.434   1.434   1.434   1.434   1.434   1.434   1.434   1.434   1.434   1.434   1.434
    50.00    1.434   1.434   1.434   1.434   1.434   1.434   1.434   1.434   1.434   1.434   1.434   1.434   1.434   1.434   1.434   1.434   1.434   1.434   1.434   1.434   1.434   1.434   1.434   1.434   1.434
    37.50    1.434   1.434   1.434   1.434   1.434   1.434   1.434   1.434   1.434   1.434   1.434   1.434   1.434   1.434   1.434   1.434   1.434   1.434   1.434   1.434   1.434   1.434   1.434   1.434   1.434
    25.00    1.434   1.434   1.434   1.434   1.434   1.434   1.434   1.434   1.434   1.434   1.434   1.434   1.434   1.434   1.434   1.434   1.434   1.434   1.434   1.434   1.434   1.434   1.434   1.434   1.434
    12.50    1.434   1.434   1.434   1.434   1.434   1.434   1.434   1.434   1.434   1.434   1.434   1.434   1.434   1.434   1.434   1.434   1.434   1.434   1.434   1.434   1.434   1.434   1.434   1.434   1.434
     0.00    1.434   1.434   1.434   1.434   1.434   1.434   1.434   1.434   1.434   1.434   1.434   1.434   1.434   1.434   1.434   1.434   1.434   1.434   1.434   1.434   1.434   1.434   1.434   1.434   1.434

   Height   Standard deviation at grid points for the w component:
   300.00    0.898   0.898   0.898   0.898   0.898   0.898   0.898   0.898   0.898   0.898   0.898   0.898   0.898   0.898   0.898   0.898   0.898   0.898   0.898   0.898   0.898   0.898   0.898   0.898   0.898
   287.50    0.898   0.898   0.898   0.898   0.898   0.898   0.898   0.898   0.898   0.898   0.898   0.898   0.898   0.898   0.898   0.898   0.898   0.898   0.898   0.898   0.898   0.898   0.898   0.898   0.898
   275.00    0.898   0.898   0.898   0.898   0.898   0.898   0.898   0.898   0.898   0.898   0.898   0.898   0.898   0.898   0.898   0.898   0.898   0.898   0.898   0.898   0.898   0.898   0.898   0.898   0.898
   262.50    0.898   0.898   0.898   0.898   0.898   0.898   0.898   0.898   0.898   0.898   0.898   0.898   0.898   0.898   0.898   0.898   0.898   0.898   0.898   0.898   0.898   0.898   0.898   0.898   0.898
   250.00    0.898   0.898   0.898   0.898   0.898   0.898   0.898   0.898   0.898   0.898   0.898   0.898   0.898   0.898   0.898   0.898   0.898   0.898   0.898   0.898   0.898   0.898   0.898   0.898   0.898
   237.50    0.898   0.898   0.898   0.898   0.898   0.898   0.898   0.898   0.898   0.898   0.898   0.898   0.898   0.898   0.898   0.898   0.898   0.898   0.898   0.898   0.898   0.898   0.898   0.898   0.898
   225.00    0.898   0.898   0.898   0.898   0.898   0.898   0.898   0.898   0.898   0.898   0.898   0.898   0.898   0.898   0.898   0.898   0.898   0.898   0.898   0.898   0.898   0.898   0.898   0.898   0.898
   212.50    0.898   0.898   0.898   0.898   0.898   0.898   0.898   0.898   0.898   0.898   0.898   0.898   0.898   0.898   0.898   0.898   0.898   0.898   0.898   0.898   0.898   0.898   0.898   0.898   0.898
   200.00    0.898   0.898   0.898   0.898   0.898   0.898   0.898   0.898   0.898   0.898   0.898   0.898   0.898   0.898   0.898   0.898   0.898   0.898   0.898   0.898   0.898   0.898   0.898   0.898   0.898
   187.50    0.898   0.898   0.898   0.898   0.898   0.898   0.898   0.898   0.898   0.898   0.898   0.898   0.898   0.898   0.898   0.898   0.898   0.898   0.898   0.898   0.898   0.898   0.898   0.898   0.898
   175.00    0.898   0.898   0.898   0.898   0.898   0.898   0.898   0.898   0.898   0.898   0.898   0.898   0.898   0.898   0.898   0.898   0.898   0.898   0.898   0.898   0.898   0.898   0.898   0.898   0.898
   162.50    0.898   0.898   0.898   0.898   0.898   0.898   0.898   0.898   0.898   0.898   0.898   0.898   0.898   0.898   0.898   0.898   0.898   0.898   0.898   0.898   0.898   0.898   0.898   0.898   0.898
   150.00    0.898   0.898   0.898   0.898   0.898   0.898   0.898   0.898   0.898   0.898   0.898   0.898   0.898   0.898   0.898   0.898   0.898   0.898   0.898   0.898   0.898   0.898   0.898   0.898   0.898
   137.50    0.898   0.898   0.898   0.898   0.898   0.898   0.898   0.898   0.898   0.898   0.898   0.898   0.898   0.898   0.898   0.898   0.898   0.898   0.898   0.898   0.898   0.898   0.898   0.898   0.898
   125.00    0.898   0.898   0.898   0.898   0.898   0.898   0.898   0.898   0.898   0.898   0.898   0.898   0.898   0.898   0.898   0.898   0.898   0.898   0.898   0.898   0.898   0.898   0.898   0.898   0.898
   112.50    0.898   0.898   0.898   0.898   0.898   0.898   0.898   0.898   0.898   0.898   0.898   0.898   0.898   0.898   0.898   0.898   0.898   0.898   0.898   0.898   0.898   0.898   0.898   0.898   0.898
   100.00    0.898   0.898   0.898   0.898   0.898   0.898   0.898   0.898   0.898   0.898   0.898   0.898   0.898   0.898   0.898   0.898   0.898   0.898   0.898   0.898   0.898   0.898   0.898   0.898   0.898
    87.50    0.898   0.898   0.898   0.898   0.898   0.898   0.898   0.898   0.898   0.898   0.898   0.898   0.898   0.898   0.898   0.898   0.898   0.898   0.898   0.898   0.898   0.898   0.898   0.898   0.898
    75.00    0.898   0.898   0.898   0.898   0.898   0.898   0.898   0.898   0.898   0.898   0.898   0.898   0.898   0.898   0.898   0.898   0.898   0.898   0.898   0.898   0.898   0.898   0.898   0.898   0.898
    62.50    0.898   0.898   0.898   0.898   0.898   0.898   0.898   0.898   0.898   0.898   0.898   0.898   0.898   0.898   0.898   0.898   0.898   0.898   0.898   0.898   0.898   0.898   0.898   0.898   0.898
    50.00    0.898   0.898   0.898   0.898   0.898   0.898   0.898   0.898   0.898   0.898   0.898   0.898   0.898   0.898   0.898   0.898   0.898   0.898   0.898   0.898   0.898   0.898   0.898   0.898   0.898
    37.50    0.898   0.898   0.898   0.898   0.898   0.898   0.898   0.898   0.898   0.898   0.898   0.898   0.898   0.898   0.898   0.898   0.898   0.898   0.898   0.898   0.898   0.898   0.898   0.898   0.898
    25.00    0.898   0.898   0.898   0.898   0.898   0.898   0.898   0.898   0.898   0.898   0.898   0.898   0.898   0.898   0.898   0.898   0.898   0.898   0.898   0.898   0.898   0.898   0.898   0.898   0.898
    12.50    0.898   0.898   0.898   0.898   0.898   0.898   0.898   0.898   0.898   0.898   0.898   0.898   0.898   0.898   0.898   0.898   0.898   0.898   0.898   0.898   0.898   0.898   0.898   0.898   0.898
     0.00    0.898   0.898   0.898   0.898   0.898   0.898   0.898   0.898   0.898   0.898   0.898   0.898   0.898   0.898   0.898   0.898   0.898   0.898   0.898   0.898   0.898   0.898   0.898   0.898   0.898

   Mean standard deviation across all grid points:
      u component:    1.736 m/s
      v component:    1.434 m/s
      w component:    0.898 m/s


U-component (X) statistics from the interpolated hub point:

   Mean =  10.0000 m/s
   TI   =  17.7981 %


Processing complete.  1081.4 CPU seconds used.
