
This summary file was generated by TurbSim (from OpenFAST-v4.0.3) on 17-Apr-2025 at 15:00:36.


Runtime Options:

 680233354  Random seed #1
    RANLUX  Type of random number generator
         F  Output binary HH turbulence parameters?
         F  Output formatted turbulence parameters?
         F  Output AeroDyn HH files?
         T  Output AeroDyn FF files?
         F  Output BLADED FF files?
         F  Output tower data?
         F  Output HAWC FF files?
         F  Output formatted FF files?
         F  Output coherent turbulence time step file?
 0 -  NONE  IEC turbulence models scaled to exact specified standard deviation


Turbine/Model Specifications:

        25  Vertical grid-point matrix dimension
        25  Horizontal grid-point matrix dimension
     0.050  Time step [seconds]
   700.000  Analysis time [seconds]
   700.000  Usable output time [seconds]
   150.000  Hub height [m]
   299.999  Grid height [m]
   299.999  Grid width [m]
     0.000  Vertical flow angle [degrees]
     0.000  Horizontal flow angle [degrees]


Meteorological Boundary Conditions:

    IECKAI  IEC Kaimal spectral model
         1  IEC standard: IEC 61400-1 Ed. 3: 2005
         B  IEC turbulence characteristic
       NTM  IEC Normal Turbulence Model
       N/A  IEC Extreme Turbulence Model (ETM) "c" parameter [m/s]
       PL   Wind profile type
   150.000  Reference height [m]
    14.000  Reference wind speed [m/s]
       N/A  Jet height [m]
     0.120  Power law exponent
     0.030  Surface roughness length [m]


Non-IEC Meteorological Boundary Conditions:

       N/A  Site latitude [degrees]
       N/A  Gradient Richardson number
       N/A  Friction or shear velocity [m/s]
       N/A  Mixing layer depth [m]
       N/A  Mean hub u'w' Reynolds stress
       N/A  Mean hub u'v' Reynolds stress
       N/A  Mean hub v'w' Reynolds stress


Spatial Coherence Models:

       IEC  u-component coherence model
      NONE  v-component coherence model
      NONE  w-component coherence model
(   12.000, 0.353E-03)  u-component coherence parameters
                   N/A  v-component coherence parameters
                   N/A  w-component coherence parameters
       N/A  Coherence exponent


You have requested that the following file(s) be generated:

   weis_job_NTM_U14.000000_Seed680233354.0.bts (AeroDyn/TurbSim full-field wind file)


Turbulence Simulation Scaling Parameter Summary:

   Turbulence model used                            =  IEC Kaimal
   Turbulence characteristic                        =  B
   IEC turbulence type                              =  Normal Turbulence Model
   IEC standard                                     =  IEC 61400-1 Ed. 3: 2005
   Mean wind speed at hub height                    =   14.000 m/s
   Expected value of turbulence intensity at 15 m/s =   14.000%
   Characteristic value of standard deviation       =    2.254 m/s
   Turbulence scale                                 =   42.000 m
   u-component integral scale                       =  340.200 m
   Coherency scale                                  =  340.200 m
   Characteristic value of hub turbulence intensity =   16.100%
   Gradient Richardson number                       =    0.000

   Wind profile type                                =  Power law
   Power law exponent                               =    0.120
   Mean shear across rotor disk                     =    0.040 (m/s)/m
   Assumed rotor diameter                           =  299.999 m
   Surface roughness length                         =    0.030 m

   Nyquist frequency of turbulent wind field        =   10.000 Hz

   Number of time steps in the FFT                  =    14000
   Number of time steps output                      =    14000
   Number of points simulated                       =      625


Mean Flow Angles:

   Vertical   =   0.0 degrees
   Horizontal =   0.0 degrees

Mean Wind Speed Profile:

   Height    Wind Speed   Horizontal Angle  Vertical Angle  U-comp (X)   V-comp (Y)   W-comp (Z)
     (m)        (m/s)         (degrees)       (degrees)       (m/s)        (m/s)        (m/s)   
   ------    ----------   ----------------  --------------  ----------   ----------   ----------
    300.0       15.21            0.00            0.00         15.21         0.00         0.00
    287.5       15.14            0.00            0.00         15.14         0.00         0.00
    275.0       15.06            0.00            0.00         15.06         0.00         0.00
    262.5       14.97            0.00            0.00         14.97         0.00         0.00
    250.0       14.89            0.00            0.00         14.89         0.00         0.00
    237.5       14.79            0.00            0.00         14.79         0.00         0.00
    225.0       14.70            0.00            0.00         14.70         0.00         0.00
    212.5       14.60            0.00            0.00         14.60         0.00         0.00
    200.0       14.49            0.00            0.00         14.49         0.00         0.00
    187.5       14.38            0.00            0.00         14.38         0.00         0.00
    175.0       14.26            0.00            0.00         14.26         0.00         0.00
    162.5       14.14            0.00            0.00         14.14         0.00         0.00
    150.0       14.00            0.00            0.00         14.00         0.00         0.00
    137.5       13.85            0.00            0.00         13.85         0.00         0.00
    125.0       13.70            0.00            0.00         13.70         0.00         0.00
    112.5       13.52            0.00            0.00         13.52         0.00         0.00
    100.0       13.34            0.00            0.00         13.34         0.00         0.00
     87.5       13.12            0.00            0.00         13.12         0.00         0.00
     75.0       12.88            0.00            0.00         12.88         0.00         0.00
     62.5       12.60            0.00            0.00         12.60         0.00         0.00
     50.0       12.27            0.00            0.00         12.27         0.00         0.00
     37.5       11.85            0.00            0.00         11.85         0.00         0.00
     25.0       11.29            0.00            0.00         11.29         0.00         0.00
     12.5       10.39            0.00            0.00         10.39         0.00         0.00
      0.0        3.10            0.00            0.00          3.10         0.00         0.00


Harvested Random Seeds after Generation of the Random Numbers:

    121953125 K 1
            0 K 2


Hub-Height Simulated Turbulence Statistical Summary:

   Type of Wind        Min (m/s)   Mean (m/s)    Max (m/s)  Sigma (m/s)       TI (%)
   ----------------    ---------   ----------    ---------  -----------       ------
   Longitudinal (u)         7.30        14.00        21.12        2.134       15.240
   Lateral (v)             -5.88        -0.00         6.62        1.768       12.627
   Vertical (w)            -4.02        -0.00         4.14        1.100        7.859
   U component              7.30        14.00        21.12        2.134       15.240
   V component             -5.88        -0.00         6.62        1.768       12.627
   W component             -4.02        -0.00         4.14        1.100        7.859
   Horizontal (U&V)         7.51        14.11        21.33        2.128       15.078
   Total                    7.60        14.16        21.40        2.121       14.982

                       Min Reynolds     Mean Reynolds    Max Reynolds    Correlation
   Product             Stress (m/s)^2   Stress (m/s)^2   Stress (m/s)^2  Coefficient
   ----------------    --------------   --------------   --------------  -----------
   u'w'                    -15.803            -0.058            16.368        -0.025
   u'v'                    -22.558            -0.173            19.124        -0.046
   v'w'                    -10.592             0.104            11.882         0.053


   Friction Velocity (Ustar)  =      0.241 m/s
   Maximum Instantaneous TKE  =     31.356 (m/s)^2
   Maximum Instantaneous CTKE =     12.620 (m/s)^2


Grid Point Variance Summary:

   Y-coord -150.00 -137.50 -125.00 -112.50 -100.00  -87.50  -75.00  -62.50  -50.00  -37.50  -25.00  -12.50    0.00   12.50   25.00   37.50   50.00   62.50   75.00   87.50  100.00  112.50  125.00  137.50  150.00

   Height   Standard deviation at grid points for the u component:
   300.00    2.320   2.452   2.346   2.227   2.137   2.212   2.078   2.145   2.392   2.290   2.199   2.193   2.338   2.242   2.133   1.963   1.931   1.814   1.819   1.916   1.984   1.964   1.918   1.920   1.934
   287.50    2.368   2.349   2.202   2.161   2.204   2.127   2.130   2.306   2.274   2.035   2.169   2.109   2.181   2.239   2.056   2.071   2.031   1.991   2.042   2.108   2.134   1.934   2.006   2.100   2.063
   275.00    2.298   2.208   2.082   2.000   2.143   2.060   2.235   2.317   2.262   2.145   2.128   2.196   2.193   2.189   2.066   1.960   1.902   2.054   2.090   2.107   2.165   2.221   2.142   2.167   2.025
   262.50    2.131   2.130   1.982   1.914   1.914   2.034   2.197   2.358   2.303   2.177   2.132   2.062   1.997   2.102   2.063   2.079   2.059   2.140   2.117   2.110   2.296   2.318   2.176   2.138   2.137
   250.00    2.067   2.062   1.914   1.901   1.805   2.072   2.147   2.290   2.171   2.116   2.156   1.961   1.936   2.183   2.231   2.171   2.163   2.145   2.090   2.255   2.270   2.335   2.163   2.098   2.204
   237.50    2.119   2.026   2.005   1.963   1.994   1.974   2.170   2.126   2.260   1.968   1.903   1.889   1.993   2.215   2.268   2.253   2.327   2.223   2.160   2.202   2.237   2.258   2.277   2.265   2.243
   225.00    1.912   2.060   2.103   1.921   1.940   1.836   2.032   2.109   2.126   2.059   1.890   1.817   2.145   2.318   2.250   2.370   2.209   2.168   1.989   2.017   2.055   2.257   2.299   2.372   2.399
   212.50    1.949   2.135   2.074   1.964   1.934   1.971   2.048   2.123   1.988   2.017   2.031   1.861   2.141   2.266   2.246   2.234   2.098   2.226   2.098   2.097   2.243   2.384   2.267   2.331   2.491
   200.00    2.061   2.160   2.028   2.044   2.045   2.086   1.967   1.976   1.938   1.960   1.916   2.019   2.062   2.110   2.090   2.009   2.248   2.210   2.151   2.291   2.230   2.469   2.419   2.355   2.296
   187.50    2.147   1.959   1.918   2.052   2.025   2.123   2.053   1.894   1.898   1.918   2.012   2.043   2.025   2.129   2.109   1.967   2.129   2.216   2.325   2.134   2.369   2.378   2.379   2.346   2.366
   175.00    2.143   2.112   2.207   2.098   2.120   2.095   1.858   1.938   1.819   1.904   2.037   2.106   2.117   2.124   1.960   2.048   2.155   2.180   2.193   2.299   2.330   2.344   2.297   2.357   2.495
   162.50    2.162   1.938   2.155   2.171   2.029   1.959   1.874   1.829   1.784   1.976   1.984   2.179   2.240   2.178   1.971   1.958   1.958   2.125   2.168   2.022   2.213   2.312   2.415   2.400   2.362
   150.00    2.222   2.021   2.079   2.010   2.049   1.812   1.828   1.769   1.921   1.885   2.006   2.033   2.134   1.894   1.878   1.891   1.879   1.979   1.942   1.913   2.061   2.112   2.094   2.345   2.231
   137.50    2.029   2.103   1.903   1.947   1.893   1.903   1.835   1.834   1.902   2.075   2.041   2.037   2.110   2.086   2.024   2.026   1.928   1.952   1.844   1.848   1.981   2.175   2.253   2.295   2.302
   125.00    2.071   2.004   2.047   1.965   2.022   1.930   1.752   1.836   2.039   1.995   2.066   1.990   2.060   2.173   2.122   2.112   2.005   1.884   1.890   1.941   1.909   2.044   2.125   2.194   2.195
   112.50    2.118   2.084   1.924   2.040   2.109   1.960   1.843   1.860   1.947   1.929   2.025   1.975   2.141   2.302   2.185   2.046   2.052   1.877   1.986   1.817   1.841   2.041   1.995   2.063   2.104
   100.00    2.053   2.062   2.078   2.136   2.149   2.039   2.043   1.841   1.912   2.072   2.109   2.107   2.203   2.122   2.211   1.985   2.027   2.091   2.215   1.973   1.877   1.942   2.125   2.041   2.082
    87.50    2.150   2.115   2.125   2.186   2.088   2.161   2.041   1.967   1.976   2.125   2.028   2.113   2.124   2.023   2.002   2.032   2.061   2.167   2.099   2.134   2.056   1.879   2.065   2.093   1.977
    75.00    2.185   1.982   2.156   2.101   2.030   2.120   2.171   2.073   2.119   2.109   2.163   2.220   2.002   2.012   2.156   2.239   2.177   2.245   2.213   1.991   1.946   1.846   2.000   1.874   1.984
    62.50    2.321   2.202   2.088   2.105   2.033   1.991   2.067   2.183   2.249   2.311   2.124   2.181   2.047   2.049   2.102   2.097   2.183   2.197   2.100   2.112   1.970   1.952   1.852   1.929   2.036
    50.00    2.362   2.313   2.132   2.026   1.965   1.983   2.100   2.042   2.010   2.133   2.045   2.070   2.143   2.169   2.094   2.028   2.124   2.212   2.133   1.996   2.055   2.063   1.930   1.833   1.939
    37.50    2.312   2.266   2.139   2.111   2.183   2.043   2.066   2.176   2.047   2.101   2.011   2.149   2.137   2.146   2.158   2.143   2.140   2.231   2.141   2.085   2.085   2.044   1.885   1.771   1.888
    25.00    2.243   2.196   2.099   2.177   2.138   1.935   2.057   2.046   2.008   1.985   2.059   2.122   2.174   2.167   1.980   2.130   2.175   2.165   2.165   2.194   2.183   1.870   1.918   1.794   1.783
    12.50    2.119   2.170   2.144   2.139   2.044   2.040   2.115   2.176   2.051   1.987   2.042   2.141   2.052   2.101   2.096   2.136   2.034   2.026   1.968   1.992   2.099   1.971   1.845   1.783   1.855
     0.00    2.170   2.230   2.315   2.093   1.938   2.119   2.172   2.114   2.158   2.113   1.975   2.167   2.146   2.191   2.165   1.865   1.803   1.834   1.792   1.936   1.763   1.827   1.761   1.785   1.908

   Height   Standard deviation at grid points for the v component:
   300.00    1.768   1.768   1.768   1.768   1.768   1.768   1.768   1.768   1.768   1.768   1.768   1.768   1.768   1.768   1.768   1.768   1.768   1.768   1.768   1.768   1.768   1.768   1.768   1.768   1.768
   287.50    1.768   1.768   1.768   1.768   1.768   1.768   1.768   1.768   1.768   1.768   1.768   1.768   1.768   1.768   1.768   1.768   1.768   1.768   1.768   1.768   1.768   1.768   1.768   1.768   1.768
   275.00    1.768   1.768   1.768   1.768   1.768   1.768   1.768   1.768   1.768   1.768   1.768   1.768   1.768   1.768   1.768   1.768   1.768   1.768   1.768   1.768   1.768   1.768   1.768   1.768   1.768
   262.50    1.768   1.768   1.768   1.768   1.768   1.768   1.768   1.768   1.768   1.768   1.768   1.768   1.768   1.768   1.768   1.768   1.768   1.768   1.768   1.768   1.768   1.768   1.768   1.768   1.768
   250.00    1.768   1.768   1.768   1.768   1.768   1.768   1.768   1.768   1.768   1.768   1.768   1.768   1.768   1.768   1.768   1.768   1.768   1.768   1.768   1.768   1.768   1.768   1.768   1.768   1.768
   237.50    1.768   1.768   1.768   1.768   1.768   1.768   1.768   1.768   1.768   1.768   1.768   1.768   1.768   1.768   1.768   1.768   1.768   1.768   1.768   1.768   1.768   1.768   1.768   1.768   1.768
   225.00    1.768   1.768   1.768   1.768   1.768   1.768   1.768   1.768   1.768   1.768   1.768   1.768   1.768   1.768   1.768   1.768   1.768   1.768   1.768   1.768   1.768   1.768   1.768   1.768   1.768
   212.50    1.768   1.768   1.768   1.768   1.768   1.768   1.768   1.768   1.768   1.768   1.768   1.768   1.768   1.768   1.768   1.768   1.768   1.768   1.768   1.768   1.768   1.768   1.768   1.768   1.768
   200.00    1.768   1.768   1.768   1.768   1.768   1.768   1.768   1.768   1.768   1.768   1.768   1.768   1.768   1.768   1.768   1.768   1.768   1.768   1.768   1.768   1.768   1.768   1.768   1.768   1.768
   187.50    1.768   1.768   1.768   1.768   1.768   1.768   1.768   1.768   1.768   1.768   1.768   1.768   1.768   1.768   1.768   1.768   1.768   1.768   1.768   1.768   1.768   1.768   1.768   1.768   1.768
   175.00    1.768   1.768   1.768   1.768   1.768   1.768   1.768   1.768   1.768   1.768   1.768   1.768   1.768   1.768   1.768   1.768   1.768   1.768   1.768   1.768   1.768   1.768   1.768   1.768   1.768
   162.50    1.768   1.768   1.768   1.768   1.768   1.768   1.768   1.768   1.768   1.768   1.768   1.768   1.768   1.768   1.768   1.768   1.768   1.768   1.768   1.768   1.768   1.768   1.768   1.768   1.768
   150.00    1.768   1.768   1.768   1.768   1.768   1.768   1.768   1.768   1.768   1.768   1.768   1.768   1.768   1.768   1.768   1.768   1.768   1.768   1.768   1.768   1.768   1.768   1.768   1.768   1.768
   137.50    1.768   1.768   1.768   1.768   1.768   1.768   1.768   1.768   1.768   1.768   1.768   1.768   1.768   1.768   1.768   1.768   1.768   1.768   1.768   1.768   1.768   1.768   1.768   1.768   1.768
   125.00    1.768   1.768   1.768   1.768   1.768   1.768   1.768   1.768   1.768   1.768   1.768   1.768   1.768   1.768   1.768   1.768   1.768   1.768   1.768   1.768   1.768   1.768   1.768   1.768   1.768
   112.50    1.768   1.768   1.768   1.768   1.768   1.768   1.768   1.768   1.768   1.768   1.768   1.768   1.768   1.768   1.768   1.768   1.768   1.768   1.768   1.768   1.768   1.768   1.768   1.768   1.768
   100.00    1.768   1.768   1.768   1.768   1.768   1.768   1.768   1.768   1.768   1.768   1.768   1.768   1.768   1.768   1.768   1.768   1.768   1.768   1.768   1.768   1.768   1.768   1.768   1.768   1.768
    87.50    1.768   1.768   1.768   1.768   1.768   1.768   1.768   1.768   1.768   1.768   1.768   1.768   1.768   1.768   1.768   1.768   1.768   1.768   1.768   1.768   1.768   1.768   1.768   1.768   1.768
    75.00    1.768   1.768   1.768   1.768   1.768   1.768   1.768   1.768   1.768   1.768   1.768   1.768   1.768   1.768   1.768   1.768   1.768   1.768   1.768   1.768   1.768   1.768   1.768   1.768   1.768
    62.50    1.768   1.768   1.768   1.768   1.768   1.768   1.768   1.768   1.768   1.768   1.768   1.768   1.768   1.768   1.768   1.768   1.768   1.768   1.768   1.768   1.768   1.768   1.768   1.768   1.768
    50.00    1.768   1.768   1.768   1.768   1.768   1.768   1.768   1.768   1.768   1.768   1.768   1.768   1.768   1.768   1.768   1.768   1.768   1.768   1.768   1.768   1.768   1.768   1.768   1.768   1.768
    37.50    1.768   1.768   1.768   1.768   1.768   1.768   1.768   1.768   1.768   1.768   1.768   1.768   1.768   1.768   1.768   1.768   1.768   1.768   1.768   1.768   1.768   1.768   1.768   1.768   1.768
    25.00    1.768   1.768   1.768   1.768   1.768   1.768   1.768   1.768   1.768   1.768   1.768   1.768   1.768   1.768   1.768   1.768   1.768   1.768   1.768   1.768   1.768   1.768   1.768   1.768   1.768
    12.50    1.768   1.768   1.768   1.768   1.768   1.768   1.768   1.768   1.768   1.768   1.768   1.768   1.768   1.768   1.768   1.768   1.768   1.768   1.768   1.768   1.768   1.768   1.768   1.768   1.768
     0.00    1.768   1.768   1.768   1.768   1.768   1.768   1.768   1.768   1.768   1.768   1.768   1.768   1.768   1.768   1.768   1.768   1.768   1.768   1.768   1.768   1.768   1.768   1.768   1.768   1.768

   Height   Standard deviation at grid points for the w component:
   300.00    1.100   1.100   1.100   1.100   1.100   1.100   1.100   1.100   1.100   1.100   1.100   1.100   1.100   1.100   1.100   1.100   1.100   1.100   1.100   1.100   1.100   1.100   1.100   1.100   1.100
   287.50    1.100   1.100   1.100   1.100   1.100   1.100   1.100   1.100   1.100   1.100   1.100   1.100   1.100   1.100   1.100   1.100   1.100   1.100   1.100   1.100   1.100   1.100   1.100   1.100   1.100
   275.00    1.100   1.100   1.100   1.100   1.100   1.100   1.100   1.100   1.100   1.100   1.100   1.100   1.100   1.100   1.100   1.100   1.100   1.100   1.100   1.100   1.100   1.100   1.100   1.100   1.100
   262.50    1.100   1.100   1.100   1.100   1.100   1.100   1.100   1.100   1.100   1.100   1.100   1.100   1.100   1.100   1.100   1.100   1.100   1.100   1.100   1.100   1.100   1.100   1.100   1.100   1.100
   250.00    1.100   1.100   1.100   1.100   1.100   1.100   1.100   1.100   1.100   1.100   1.100   1.100   1.100   1.100   1.100   1.100   1.100   1.100   1.100   1.100   1.100   1.100   1.100   1.100   1.100
   237.50    1.100   1.100   1.100   1.100   1.100   1.100   1.100   1.100   1.100   1.100   1.100   1.100   1.100   1.100   1.100   1.100   1.100   1.100   1.100   1.100   1.100   1.100   1.100   1.100   1.100
   225.00    1.100   1.100   1.100   1.100   1.100   1.100   1.100   1.100   1.100   1.100   1.100   1.100   1.100   1.100   1.100   1.100   1.100   1.100   1.100   1.100   1.100   1.100   1.100   1.100   1.100
   212.50    1.100   1.100   1.100   1.100   1.100   1.100   1.100   1.100   1.100   1.100   1.100   1.100   1.100   1.100   1.100   1.100   1.100   1.100   1.100   1.100   1.100   1.100   1.100   1.100   1.100
   200.00    1.100   1.100   1.100   1.100   1.100   1.100   1.100   1.100   1.100   1.100   1.100   1.100   1.100   1.100   1.100   1.100   1.100   1.100   1.100   1.100   1.100   1.100   1.100   1.100   1.100
   187.50    1.100   1.100   1.100   1.100   1.100   1.100   1.100   1.100   1.100   1.100   1.100   1.100   1.100   1.100   1.100   1.100   1.100   1.100   1.100   1.100   1.100   1.100   1.100   1.100   1.100
   175.00    1.100   1.100   1.100   1.100   1.100   1.100   1.100   1.100   1.100   1.100   1.100   1.100   1.100   1.100   1.100   1.100   1.100   1.100   1.100   1.100   1.100   1.100   1.100   1.100   1.100
   162.50    1.100   1.100   1.100   1.100   1.100   1.100   1.100   1.100   1.100   1.100   1.100   1.100   1.100   1.100   1.100   1.100   1.100   1.100   1.100   1.100   1.100   1.100   1.100   1.100   1.100
   150.00    1.100   1.100   1.100   1.100   1.100   1.100   1.100   1.100   1.100   1.100   1.100   1.100   1.100   1.100   1.100   1.100   1.100   1.100   1.100   1.100   1.100   1.100   1.100   1.100   1.100
   137.50    1.100   1.100   1.100   1.100   1.100   1.100   1.100   1.100   1.100   1.100   1.100   1.100   1.100   1.100   1.100   1.100   1.100   1.100   1.100   1.100   1.100   1.100   1.100   1.100   1.100
   125.00    1.100   1.100   1.100   1.100   1.100   1.100   1.100   1.100   1.100   1.100   1.100   1.100   1.100   1.100   1.100   1.100   1.100   1.100   1.100   1.100   1.100   1.100   1.100   1.100   1.100
   112.50    1.100   1.100   1.100   1.100   1.100   1.100   1.100   1.100   1.100   1.100   1.100   1.100   1.100   1.100   1.100   1.100   1.100   1.100   1.100   1.100   1.100   1.100   1.100   1.100   1.100
   100.00    1.100   1.100   1.100   1.100   1.100   1.100   1.100   1.100   1.100   1.100   1.100   1.100   1.100   1.100   1.100   1.100   1.100   1.100   1.100   1.100   1.100   1.100   1.100   1.100   1.100
    87.50    1.100   1.100   1.100   1.100   1.100   1.100   1.100   1.100   1.100   1.100   1.100   1.100   1.100   1.100   1.100   1.100   1.100   1.100   1.100   1.100   1.100   1.100   1.100   1.100   1.100
    75.00    1.100   1.100   1.100   1.100   1.100   1.100   1.100   1.100   1.100   1.100   1.100   1.100   1.100   1.100   1.100   1.100   1.100   1.100   1.100   1.100   1.100   1.100   1.100   1.100   1.100
    62.50    1.100   1.100   1.100   1.100   1.100   1.100   1.100   1.100   1.100   1.100   1.100   1.100   1.100   1.100   1.100   1.100   1.100   1.100   1.100   1.100   1.100   1.100   1.100   1.100   1.100
    50.00    1.100   1.100   1.100   1.100   1.100   1.100   1.100   1.100   1.100   1.100   1.100   1.100   1.100   1.100   1.100   1.100   1.100   1.100   1.100   1.100   1.100   1.100   1.100   1.100   1.100
    37.50    1.100   1.100   1.100   1.100   1.100   1.100   1.100   1.100   1.100   1.100   1.100   1.100   1.100   1.100   1.100   1.100   1.100   1.100   1.100   1.100   1.100   1.100   1.100   1.100   1.100
    25.00    1.100   1.100   1.100   1.100   1.100   1.100   1.100   1.100   1.100   1.100   1.100   1.100   1.100   1.100   1.100   1.100   1.100   1.100   1.100   1.100   1.100   1.100   1.100   1.100   1.100
    12.50    1.100   1.100   1.100   1.100   1.100   1.100   1.100   1.100   1.100   1.100   1.100   1.100   1.100   1.100   1.100   1.100   1.100   1.100   1.100   1.100   1.100   1.100   1.100   1.100   1.100
     0.00    1.100   1.100   1.100   1.100   1.100   1.100   1.100   1.100   1.100   1.100   1.100   1.100   1.100   1.100   1.100   1.100   1.100   1.100   1.100   1.100   1.100   1.100   1.100   1.100   1.100

   Mean standard deviation across all grid points:
      u component:    2.085 m/s
      v component:    1.768 m/s
      w component:    1.100 m/s


U-component (X) statistics from the interpolated hub point:

   Mean =  14.0000 m/s
   TI   =  15.2399 %


Processing complete.  1282.8 CPU seconds used.
