
This summary file was generated by TurbSim (from OpenFAST--128-NOTFOUND) on 23-Apr-2025 at 12:23:09.


Runtime Options:

 488200390  Random seed #1
    RANLUX  Type of random number generator
         F  Output binary HH turbulence parameters?
         F  Output formatted turbulence parameters?
         F  Output AeroDyn HH files?
         T  Output AeroDyn FF files?
         F  Output BLADED FF files?
         F  Output tower data?
         F  Output HAWC FF files?
         F  Output formatted FF files?
         F  Output coherent turbulence time step file?
 0 -  NONE  IEC turbulence models scaled to exact specified standard deviation


Turbine/Model Specifications:

        25  Vertical grid-point matrix dimension
        25  Horizontal grid-point matrix dimension
     0.050  Time step [seconds]
   700.000  Analysis time [seconds]
   700.000  Usable output time [seconds]
   148.735  Hub height [m]
   297.469  Grid height [m]
   297.469  Grid width [m]
     0.000  Vertical flow angle [degrees]
     0.000  Horizontal flow angle [degrees]


Meteorological Boundary Conditions:

    IECKAI  IEC Kaimal spectral model
         1  IEC standard: IEC 61400-1 Ed. 3: 2005
         B  IEC turbulence characteristic
       NTM  IEC Normal Turbulence Model
       N/A  IEC Extreme Turbulence Model (ETM) "c" parameter [m/s]
       PL   Wind profile type
   150.000  Reference height [m]
    10.000  Reference wind speed [m/s]
       N/A  Jet height [m]
     0.120  Power law exponent
     0.030  Surface roughness length [m]


Non-IEC Meteorological Boundary Conditions:

       N/A  Site latitude [degrees]
       N/A  Gradient Richardson number
       N/A  Friction or shear velocity [m/s]
       N/A  Mixing layer depth [m]
       N/A  Mean hub u'w' Reynolds stress
       N/A  Mean hub u'v' Reynolds stress
       N/A  Mean hub v'w' Reynolds stress


Spatial Coherence Models:

       IEC  u-component coherence model
      NONE  v-component coherence model
      NONE  w-component coherence model
(   12.000, 0.353E-03)  u-component coherence parameters
                   N/A  v-component coherence parameters
                   N/A  w-component coherence parameters
       N/A  Coherence exponent


You have requested that the following file(s) be generated:

   IEA_w_TMD_NTM_U10.000000_Seed488200390.0.bts (AeroDyn/TurbSim full-field wind file)


Turbulence Simulation Scaling Parameter Summary:

   Turbulence model used                            =  IEC Kaimal
   Turbulence characteristic                        =  B
   IEC turbulence type                              =  Normal Turbulence Model
   IEC standard                                     =  IEC 61400-1 Ed. 3: 2005
   Mean wind speed at hub height                    =    9.990 m/s
   Expected value of turbulence intensity at 15 m/s =   14.000%
   Characteristic value of standard deviation       =    1.833 m/s
   Turbulence scale                                 =   42.000 m
   u-component integral scale                       =  340.200 m
   Coherency scale                                  =  340.200 m
   Characteristic value of hub turbulence intensity =   18.348%
   Gradient Richardson number                       =    0.000

   Wind profile type                                =  Power law
   Power law exponent                               =    0.120
   Mean shear across rotor disk                     =    0.029 (m/s)/m
   Assumed rotor diameter                           =  297.469 m
   Surface roughness length                         =    0.030 m

   Nyquist frequency of turbulent wind field        =   10.000 Hz

   Number of time steps in the FFT                  =    14000
   Number of time steps output                      =    14000
   Number of points simulated                       =      625


Mean Flow Angles:

   Vertical   =   0.0 degrees
   Horizontal =   0.0 degrees

Mean Wind Speed Profile:

   Height    Wind Speed   Horizontal Angle  Vertical Angle  U-comp (X)   V-comp (Y)   W-comp (Z)
     (m)        (m/s)         (degrees)       (degrees)       (m/s)        (m/s)        (m/s)   
   ------    ----------   ----------------  --------------  ----------   ----------   ----------
    297.5       10.86            0.00            0.00         10.86         0.00         0.00
    285.1       10.80            0.00            0.00         10.80         0.00         0.00
    272.7       10.74            0.00            0.00         10.74         0.00         0.00
    260.3       10.68            0.00            0.00         10.68         0.00         0.00
    247.9       10.62            0.00            0.00         10.62         0.00         0.00
    235.5       10.56            0.00            0.00         10.56         0.00         0.00
    223.1       10.49            0.00            0.00         10.49         0.00         0.00
    210.7       10.42            0.00            0.00         10.42         0.00         0.00
    198.3       10.34            0.00            0.00         10.34         0.00         0.00
    185.9       10.26            0.00            0.00         10.26         0.00         0.00
    173.5       10.18            0.00            0.00         10.18         0.00         0.00
    161.1       10.09            0.00            0.00         10.09         0.00         0.00
    148.7        9.99            0.00            0.00          9.99         0.00         0.00
    136.3        9.89            0.00            0.00          9.89         0.00         0.00
    123.9        9.77            0.00            0.00          9.77         0.00         0.00
    111.6        9.65            0.00            0.00          9.65         0.00         0.00
     99.2        9.52            0.00            0.00          9.52         0.00         0.00
     86.8        9.36            0.00            0.00          9.36         0.00         0.00
     74.4        9.19            0.00            0.00          9.19         0.00         0.00
     62.0        8.99            0.00            0.00          8.99         0.00         0.00
     49.6        8.76            0.00            0.00          8.76         0.00         0.00
     37.2        8.46            0.00            0.00          8.46         0.00         0.00
     24.8        8.06            0.00            0.00          8.06         0.00         0.00
     12.4        7.41            0.00            0.00          7.41         0.00         0.00
      0.0        2.20            0.00            0.00          2.20         0.00         0.00


Harvested Random Seeds after Generation of the Random Numbers:

    121953125 K 1
            0 K 2


Hub-Height Simulated Turbulence Statistical Summary:

   Type of Wind        Min (m/s)   Mean (m/s)    Max (m/s)  Sigma (m/s)       TI (%)
   ----------------    ---------   ----------    ---------  -----------       ------
   Longitudinal (u)         5.03         9.99        15.06        1.780       17.817
   Lateral (v)             -5.46        -0.00         5.16        1.433       14.348
   Vertical (w)            -3.00         0.00         3.28        0.898        8.985
   U component              5.03         9.99        15.06        1.780       17.817
   V component             -5.46        -0.00         5.16        1.433       14.348
   W component             -3.00         0.00         3.28        0.898        8.985
   Horizontal (U&V)         5.04        10.10        15.07        1.758       17.411
   Total                    5.08        10.14        15.13        1.755       17.318

                       Min Reynolds     Mean Reynolds    Max Reynolds    Correlation
   Product             Stress (m/s)^2   Stress (m/s)^2   Stress (m/s)^2  Coefficient
   ----------------    --------------   --------------   --------------  -----------
   u'w'                    -10.119            -0.022            10.227        -0.014
   u'v'                    -15.260            -0.488            13.468        -0.191
   v'w'                    -11.096            -0.131             7.275        -0.102


   Friction Velocity (Ustar)  =      0.147 m/s
   Maximum Instantaneous TKE  =     17.332 (m/s)^2
   Maximum Instantaneous CTKE =      7.929 (m/s)^2


Grid Point Variance Summary:

   Y-coord -148.73 -136.34 -123.95 -111.55  -99.16  -86.76  -74.37  -61.97  -49.58  -37.18  -24.79  -12.39    0.00   12.39   24.79   37.18   49.58   61.97   74.37   86.76   99.16  111.55  123.95  136.34  148.73

   Height   Standard deviation at grid points for the u component:
   297.47    1.440   1.491   1.651   1.469   1.461   1.404   1.586   1.565   1.582   1.499   1.393   1.584   1.623   1.596   1.729   1.719   1.690   1.477   1.396   1.430   1.467   1.647   1.687   1.789   1.616
   285.07    1.493   1.472   1.557   1.588   1.586   1.618   1.550   1.439   1.504   1.623   1.501   1.499   1.628   1.456   1.679   1.697   1.725   1.537   1.465   1.375   1.333   1.551   1.720   1.787   1.702
   272.68    1.522   1.495   1.483   1.540   1.504   1.547   1.433   1.495   1.427   1.643   1.527   1.679   1.556   1.574   1.536   1.646   1.583   1.700   1.650   1.511   1.559   1.582   1.675   1.725   1.813
   260.29    1.367   1.473   1.634   1.632   1.556   1.553   1.460   1.485   1.455   1.437   1.427   1.572   1.645   1.754   1.605   1.834   1.737   1.645   1.638   1.589   1.494   1.666   1.668   1.793   1.780
   247.89    1.411   1.458   1.560   1.619   1.484   1.529   1.537   1.517   1.447   1.334   1.440   1.559   1.752   1.733   1.758   1.666   1.655   1.612   1.640   1.521   1.683   1.803   1.884   1.841   1.741
   235.50    1.518   1.429   1.571   1.677   1.674   1.599   1.556   1.506   1.479   1.613   1.662   1.600   1.563   1.612   1.811   1.600   1.663   1.621   1.512   1.633   1.649   1.730   1.685   1.707   1.572
   223.10    1.520   1.654   1.573   1.598   1.624   1.691   1.528   1.560   1.491   1.599   1.585   1.635   1.709   1.803   1.717   1.773   1.573   1.651   1.568   1.597   1.515   1.518   1.649   1.599   1.641
   210.71    1.682   1.668   1.581   1.728   1.704   1.550   1.567   1.514   1.450   1.649   1.630   1.721   1.586   1.645   1.724   1.731   1.674   1.654   1.610   1.639   1.541   1.488   1.537   1.649   1.647
   198.31    1.727   1.661   1.554   1.604   1.639   1.652   1.661   1.494   1.515   1.730   1.678   1.855   1.786   1.778   1.916   1.780   1.780   1.750   1.651   1.613   1.672   1.453   1.553   1.559   1.576
   185.92    1.772   1.822   1.836   1.789   1.659   1.645   1.682   1.740   1.623   1.793   2.006   1.949   2.005   1.882   1.902   1.807   1.692   1.608   1.632   1.622   1.728   1.583   1.541   1.681   1.508
   173.52    1.811   1.870   1.813   1.800   1.808   1.674   1.832   1.949   1.808   1.791   2.007   1.881   1.961   1.894   1.748   1.737   1.687   1.581   1.684   1.637   1.757   1.695   1.603   1.646   1.735
   161.13    1.687   1.809   1.818   1.746   1.865   1.947   2.008   1.971   1.909   1.936   1.893   1.841   1.904   1.684   1.701   1.760   1.652   1.587   1.651   1.796   1.868   1.758   1.724   1.619   1.642
   148.73    1.626   1.790   1.719   1.687   1.859   1.935   1.985   2.044   2.154   1.929   1.791   1.747   1.780   1.635   1.682   1.671   1.590   1.471   1.591   1.893   1.849   1.817   1.674   1.665   1.678
   136.34    1.677   1.716   1.867   1.699   1.789   2.037   1.971   2.073   1.971   1.826   1.770   1.717   1.722   1.707   1.582   1.674   1.601   1.535   1.548   1.706   1.834   1.800   1.601   1.529   1.544
   123.95    1.702   1.702   1.665   1.690   1.814   2.003   2.001   1.824   1.774   1.790   1.837   1.793   1.782   1.740   1.683   1.678   1.736   1.680   1.629   1.530   1.667   1.758   1.658   1.456   1.625
   111.55    1.676   1.786   1.904   1.680   1.738   1.849   1.928   1.937   1.827   1.700   1.703   1.811   1.778   1.703   1.629   1.661   1.742   1.734   1.593   1.563   1.483   1.710   1.721   1.661   1.707
    99.16    1.708   1.671   1.805   1.880   1.935   1.787   1.786   1.870   1.744   1.779   1.709   1.866   1.818   1.702   1.697   1.838   1.856   1.744   1.709   1.587   1.704   1.675   1.800   1.851   1.865
    86.76    1.693   1.721   1.773   1.810   1.778   1.718   1.858   1.923   1.704   1.812   1.906   1.980   1.794   1.848   1.959   1.994   1.863   1.718   1.675   1.750   1.818   1.825   1.650   1.707   1.712
    74.37    1.755   1.859   1.830   1.976   1.870   1.735   1.769   1.873   1.755   1.878   2.060   2.092   1.948   1.849   1.844   1.897   1.764   1.968   1.860   1.878   1.809   1.772   1.632   1.629   1.730
    61.97    1.812   1.937   1.984   1.970   1.869   1.728   1.744   1.716   1.862   1.892   1.998   1.937   1.759   1.837   1.900   1.815   2.026   1.874   1.938   1.842   1.855   1.746   1.650   1.729   1.710
    49.58    1.692   1.825   1.973   1.938   1.910   1.775   1.784   1.871   1.942   2.213   2.150   1.885   1.848   1.957   1.993   1.853   1.806   2.020   1.897   2.045   1.963   2.001   1.714   1.551   1.588
    37.18    1.592   1.739   1.867   1.885   1.937   1.988   2.035   1.952   2.097   2.097   2.127   1.958   2.049   1.902   1.962   1.964   1.919   2.005   2.066   2.081   1.962   1.764   1.740   1.702   1.507
    24.79    1.703   1.799   1.685   1.843   1.904   1.878   1.912   1.935   1.925   1.967   1.917   2.105   1.958   1.927   2.104   2.027   2.032   2.023   1.932   1.918   1.705   1.707   1.655   1.587   1.519
    12.40    1.826   1.946   1.758   1.750   1.854   1.812   1.976   1.804   1.960   1.984   1.856   2.143   2.026   2.268   2.119   2.082   2.060   1.862   1.917   1.809   1.721   1.647   1.541   1.559   1.557
     0.00    1.743   1.932   1.877   1.856   1.931   1.834   1.985   1.904   1.939   2.095   2.091   2.164   2.071   2.244   2.193   2.084   1.972   1.883   1.744   1.677   1.694   1.655   1.573   1.496   1.506

   Height   Standard deviation at grid points for the v component:
   297.47    1.433   1.433   1.433   1.433   1.433   1.433   1.433   1.433   1.433   1.433   1.433   1.433   1.433   1.433   1.433   1.433   1.433   1.433   1.433   1.433   1.433   1.433   1.433   1.433   1.433
   285.07    1.433   1.433   1.433   1.433   1.433   1.433   1.433   1.433   1.433   1.433   1.433   1.433   1.433   1.433   1.433   1.433   1.433   1.433   1.433   1.433   1.433   1.433   1.433   1.433   1.433
   272.68    1.433   1.433   1.433   1.433   1.433   1.433   1.433   1.433   1.433   1.433   1.433   1.433   1.433   1.433   1.433   1.433   1.433   1.433   1.433   1.433   1.433   1.433   1.433   1.433   1.433
   260.29    1.433   1.433   1.433   1.433   1.433   1.433   1.433   1.433   1.433   1.433   1.433   1.433   1.433   1.433   1.433   1.433   1.433   1.433   1.433   1.433   1.433   1.433   1.433   1.433   1.433
   247.89    1.433   1.433   1.433   1.433   1.433   1.433   1.433   1.433   1.433   1.433   1.433   1.433   1.433   1.433   1.433   1.433   1.433   1.433   1.433   1.433   1.433   1.433   1.433   1.433   1.433
   235.50    1.433   1.433   1.433   1.433   1.433   1.433   1.433   1.433   1.433   1.433   1.433   1.433   1.433   1.433   1.433   1.433   1.433   1.433   1.433   1.433   1.433   1.433   1.433   1.433   1.433
   223.10    1.433   1.433   1.433   1.433   1.433   1.433   1.433   1.433   1.433   1.433   1.433   1.433   1.433   1.433   1.433   1.433   1.433   1.433   1.433   1.433   1.433   1.433   1.433   1.433   1.433
   210.71    1.433   1.433   1.433   1.433   1.433   1.433   1.433   1.433   1.433   1.433   1.433   1.433   1.433   1.433   1.433   1.433   1.433   1.433   1.433   1.433   1.433   1.433   1.433   1.433   1.433
   198.31    1.433   1.433   1.433   1.433   1.433   1.433   1.433   1.433   1.433   1.433   1.433   1.433   1.433   1.433   1.433   1.433   1.433   1.433   1.433   1.433   1.433   1.433   1.433   1.433   1.433
   185.92    1.433   1.433   1.433   1.433   1.433   1.433   1.433   1.433   1.433   1.433   1.433   1.433   1.433   1.433   1.433   1.433   1.433   1.433   1.433   1.433   1.433   1.433   1.433   1.433   1.433
   173.52    1.433   1.433   1.433   1.433   1.433   1.433   1.433   1.433   1.433   1.433   1.433   1.433   1.433   1.433   1.433   1.433   1.433   1.433   1.433   1.433   1.433   1.433   1.433   1.433   1.433
   161.13    1.433   1.433   1.433   1.433   1.433   1.433   1.433   1.433   1.433   1.433   1.433   1.433   1.433   1.433   1.433   1.433   1.433   1.433   1.433   1.433   1.433   1.433   1.433   1.433   1.433
   148.73    1.433   1.433   1.433   1.433   1.433   1.433   1.433   1.433   1.433   1.433   1.433   1.433   1.433   1.433   1.433   1.433   1.433   1.433   1.433   1.433   1.433   1.433   1.433   1.433   1.433
   136.34    1.433   1.433   1.433   1.433   1.433   1.433   1.433   1.433   1.433   1.433   1.433   1.433   1.433   1.433   1.433   1.433   1.433   1.433   1.433   1.433   1.433   1.433   1.433   1.433   1.433
   123.95    1.433   1.433   1.433   1.433   1.433   1.433   1.433   1.433   1.433   1.433   1.433   1.433   1.433   1.433   1.433   1.433   1.433   1.433   1.433   1.433   1.433   1.433   1.433   1.433   1.433
   111.55    1.433   1.433   1.433   1.433   1.433   1.433   1.433   1.433   1.433   1.433   1.433   1.433   1.433   1.433   1.433   1.433   1.433   1.433   1.433   1.433   1.433   1.433   1.433   1.433   1.433
    99.16    1.433   1.433   1.433   1.433   1.433   1.433   1.433   1.433   1.433   1.433   1.433   1.433   1.433   1.433   1.433   1.433   1.433   1.433   1.433   1.433   1.433   1.433   1.433   1.433   1.433
    86.76    1.433   1.433   1.433   1.433   1.433   1.433   1.433   1.433   1.433   1.433   1.433   1.433   1.433   1.433   1.433   1.433   1.433   1.433   1.433   1.433   1.433   1.433   1.433   1.433   1.433
    74.37    1.433   1.433   1.433   1.433   1.433   1.433   1.433   1.433   1.433   1.433   1.433   1.433   1.433   1.433   1.433   1.433   1.433   1.433   1.433   1.433   1.433   1.433   1.433   1.433   1.433
    61.97    1.433   1.433   1.433   1.433   1.433   1.433   1.433   1.433   1.433   1.433   1.433   1.433   1.433   1.433   1.433   1.433   1.433   1.433   1.433   1.433   1.433   1.433   1.433   1.433   1.433
    49.58    1.433   1.433   1.433   1.433   1.433   1.433   1.433   1.433   1.433   1.433   1.433   1.433   1.433   1.433   1.433   1.433   1.433   1.433   1.433   1.433   1.433   1.433   1.433   1.433   1.433
    37.18    1.433   1.433   1.433   1.433   1.433   1.433   1.433   1.433   1.433   1.433   1.433   1.433   1.433   1.433   1.433   1.433   1.433   1.433   1.433   1.433   1.433   1.433   1.433   1.433   1.433
    24.79    1.433   1.433   1.433   1.433   1.433   1.433   1.433   1.433   1.433   1.433   1.433   1.433   1.433   1.433   1.433   1.433   1.433   1.433   1.433   1.433   1.433   1.433   1.433   1.433   1.433
    12.40    1.433   1.433   1.433   1.433   1.433   1.433   1.433   1.433   1.433   1.433   1.433   1.433   1.433   1.433   1.433   1.433   1.433   1.433   1.433   1.433   1.433   1.433   1.433   1.433   1.433
     0.00    1.433   1.433   1.433   1.433   1.433   1.433   1.433   1.433   1.433   1.433   1.433   1.433   1.433   1.433   1.433   1.433   1.433   1.433   1.433   1.433   1.433   1.433   1.433   1.433   1.433

   Height   Standard deviation at grid points for the w component:
   297.47    0.898   0.898   0.898   0.898   0.898   0.898   0.898   0.898   0.898   0.898   0.898   0.898   0.898   0.898   0.898   0.898   0.898   0.898   0.898   0.898   0.898   0.898   0.898   0.898   0.898
   285.07    0.898   0.898   0.898   0.898   0.898   0.898   0.898   0.898   0.898   0.898   0.898   0.898   0.898   0.898   0.898   0.898   0.898   0.898   0.898   0.898   0.898   0.898   0.898   0.898   0.898
   272.68    0.898   0.898   0.898   0.898   0.898   0.898   0.898   0.898   0.898   0.898   0.898   0.898   0.898   0.898   0.898   0.898   0.898   0.898   0.898   0.898   0.898   0.898   0.898   0.898   0.898
   260.29    0.898   0.898   0.898   0.898   0.898   0.898   0.898   0.898   0.898   0.898   0.898   0.898   0.898   0.898   0.898   0.898   0.898   0.898   0.898   0.898   0.898   0.898   0.898   0.898   0.898
   247.89    0.898   0.898   0.898   0.898   0.898   0.898   0.898   0.898   0.898   0.898   0.898   0.898   0.898   0.898   0.898   0.898   0.898   0.898   0.898   0.898   0.898   0.898   0.898   0.898   0.898
   235.50    0.898   0.898   0.898   0.898   0.898   0.898   0.898   0.898   0.898   0.898   0.898   0.898   0.898   0.898   0.898   0.898   0.898   0.898   0.898   0.898   0.898   0.898   0.898   0.898   0.898
   223.10    0.898   0.898   0.898   0.898   0.898   0.898   0.898   0.898   0.898   0.898   0.898   0.898   0.898   0.898   0.898   0.898   0.898   0.898   0.898   0.898   0.898   0.898   0.898   0.898   0.898
   210.71    0.898   0.898   0.898   0.898   0.898   0.898   0.898   0.898   0.898   0.898   0.898   0.898   0.898   0.898   0.898   0.898   0.898   0.898   0.898   0.898   0.898   0.898   0.898   0.898   0.898
   198.31    0.898   0.898   0.898   0.898   0.898   0.898   0.898   0.898   0.898   0.898   0.898   0.898   0.898   0.898   0.898   0.898   0.898   0.898   0.898   0.898   0.898   0.898   0.898   0.898   0.898
   185.92    0.898   0.898   0.898   0.898   0.898   0.898   0.898   0.898   0.898   0.898   0.898   0.898   0.898   0.898   0.898   0.898   0.898   0.898   0.898   0.898   0.898   0.898   0.898   0.898   0.898
   173.52    0.898   0.898   0.898   0.898   0.898   0.898   0.898   0.898   0.898   0.898   0.898   0.898   0.898   0.898   0.898   0.898   0.898   0.898   0.898   0.898   0.898   0.898   0.898   0.898   0.898
   161.13    0.898   0.898   0.898   0.898   0.898   0.898   0.898   0.898   0.898   0.898   0.898   0.898   0.898   0.898   0.898   0.898   0.898   0.898   0.898   0.898   0.898   0.898   0.898   0.898   0.898
   148.73    0.898   0.898   0.898   0.898   0.898   0.898   0.898   0.898   0.898   0.898   0.898   0.898   0.898   0.898   0.898   0.898   0.898   0.898   0.898   0.898   0.898   0.898   0.898   0.898   0.898
   136.34    0.898   0.898   0.898   0.898   0.898   0.898   0.898   0.898   0.898   0.898   0.898   0.898   0.898   0.898   0.898   0.898   0.898   0.898   0.898   0.898   0.898   0.898   0.898   0.898   0.898
   123.95    0.898   0.898   0.898   0.898   0.898   0.898   0.898   0.898   0.898   0.898   0.898   0.898   0.898   0.898   0.898   0.898   0.898   0.898   0.898   0.898   0.898   0.898   0.898   0.898   0.898
   111.55    0.898   0.898   0.898   0.898   0.898   0.898   0.898   0.898   0.898   0.898   0.898   0.898   0.898   0.898   0.898   0.898   0.898   0.898   0.898   0.898   0.898   0.898   0.898   0.898   0.898
    99.16    0.898   0.898   0.898   0.898   0.898   0.898   0.898   0.898   0.898   0.898   0.898   0.898   0.898   0.898   0.898   0.898   0.898   0.898   0.898   0.898   0.898   0.898   0.898   0.898   0.898
    86.76    0.898   0.898   0.898   0.898   0.898   0.898   0.898   0.898   0.898   0.898   0.898   0.898   0.898   0.898   0.898   0.898   0.898   0.898   0.898   0.898   0.898   0.898   0.898   0.898   0.898
    74.37    0.898   0.898   0.898   0.898   0.898   0.898   0.898   0.898   0.898   0.898   0.898   0.898   0.898   0.898   0.898   0.898   0.898   0.898   0.898   0.898   0.898   0.898   0.898   0.898   0.898
    61.97    0.898   0.898   0.898   0.898   0.898   0.898   0.898   0.898   0.898   0.898   0.898   0.898   0.898   0.898   0.898   0.898   0.898   0.898   0.898   0.898   0.898   0.898   0.898   0.898   0.898
    49.58    0.898   0.898   0.898   0.898   0.898   0.898   0.898   0.898   0.898   0.898   0.898   0.898   0.898   0.898   0.898   0.898   0.898   0.898   0.898   0.898   0.898   0.898   0.898   0.898   0.898
    37.18    0.898   0.898   0.898   0.898   0.898   0.898   0.898   0.898   0.898   0.898   0.898   0.898   0.898   0.898   0.898   0.898   0.898   0.898   0.898   0.898   0.898   0.898   0.898   0.898   0.898
    24.79    0.898   0.898   0.898   0.898   0.898   0.898   0.898   0.898   0.898   0.898   0.898   0.898   0.898   0.898   0.898   0.898   0.898   0.898   0.898   0.898   0.898   0.898   0.898   0.898   0.898
    12.40    0.898   0.898   0.898   0.898   0.898   0.898   0.898   0.898   0.898   0.898   0.898   0.898   0.898   0.898   0.898   0.898   0.898   0.898   0.898   0.898   0.898   0.898   0.898   0.898   0.898
     0.00    0.898   0.898   0.898   0.898   0.898   0.898   0.898   0.898   0.898   0.898   0.898   0.898   0.898   0.898   0.898   0.898   0.898   0.898   0.898   0.898   0.898   0.898   0.898   0.898   0.898

   Mean standard deviation across all grid points:
      u component:    1.735 m/s
      v component:    1.433 m/s
      w component:    0.898 m/s


U-component (X) statistics from the interpolated hub point:

   Mean =   9.9898 m/s
   TI   =  17.8168 %


Processing complete.  1388.2 CPU seconds used.
