
This summary file was generated by TurbSim (from OpenFAST--128-NOTFOUND) on 23-Apr-2025 at 12:23:55.


Runtime Options:

1693606511  Random seed #1
    RANLUX  Type of random number generator
         F  Output binary HH turbulence parameters?
         F  Output formatted turbulence parameters?
         F  Output AeroDyn HH files?
         T  Output AeroDyn FF files?
         F  Output BLADED FF files?
         F  Output tower data?
         F  Output HAWC FF files?
         F  Output formatted FF files?
         F  Output coherent turbulence time step file?
 0 -  NONE  IEC turbulence models scaled to exact specified standard deviation


Turbine/Model Specifications:

        25  Vertical grid-point matrix dimension
        25  Horizontal grid-point matrix dimension
     0.050  Time step [seconds]
   700.000  Analysis time [seconds]
   700.000  Usable output time [seconds]
   148.735  Hub height [m]
   297.469  Grid height [m]
   297.469  Grid width [m]
     0.000  Vertical flow angle [degrees]
     0.000  Horizontal flow angle [degrees]


Meteorological Boundary Conditions:

    IECKAI  IEC Kaimal spectral model
         1  IEC standard: IEC 61400-1 Ed. 3: 2005
         B  IEC turbulence characteristic
       NTM  IEC Normal Turbulence Model
       N/A  IEC Extreme Turbulence Model (ETM) "c" parameter [m/s]
       PL   Wind profile type
   150.000  Reference height [m]
    12.000  Reference wind speed [m/s]
       N/A  Jet height [m]
     0.120  Power law exponent
     0.030  Surface roughness length [m]


Non-IEC Meteorological Boundary Conditions:

       N/A  Site latitude [degrees]
       N/A  Gradient Richardson number
       N/A  Friction or shear velocity [m/s]
       N/A  Mixing layer depth [m]
       N/A  Mean hub u'w' Reynolds stress
       N/A  Mean hub u'v' Reynolds stress
       N/A  Mean hub v'w' Reynolds stress


Spatial Coherence Models:

       IEC  u-component coherence model
      NONE  v-component coherence model
      NONE  w-component coherence model
(   12.000, 0.353E-03)  u-component coherence parameters
                   N/A  v-component coherence parameters
                   N/A  w-component coherence parameters
       N/A  Coherence exponent


You have requested that the following file(s) be generated:

   IEA_w_TMD_NTM_U12.000000_Seed1693606511.0.bts (AeroDyn/TurbSim full-field wind file)


Turbulence Simulation Scaling Parameter Summary:

   Turbulence model used                            =  IEC Kaimal
   Turbulence characteristic                        =  B
   IEC turbulence type                              =  Normal Turbulence Model
   IEC standard                                     =  IEC 61400-1 Ed. 3: 2005
   Mean wind speed at hub height                    =   11.988 m/s
   Expected value of turbulence intensity at 15 m/s =   14.000%
   Characteristic value of standard deviation       =    2.043 m/s
   Turbulence scale                                 =   42.000 m
   u-component integral scale                       =  340.200 m
   Coherency scale                                  =  340.200 m
   Characteristic value of hub turbulence intensity =   17.040%
   Gradient Richardson number                       =    0.000

   Wind profile type                                =  Power law
   Power law exponent                               =    0.120
   Mean shear across rotor disk                     =    0.035 (m/s)/m
   Assumed rotor diameter                           =  297.469 m
   Surface roughness length                         =    0.030 m

   Nyquist frequency of turbulent wind field        =   10.000 Hz

   Number of time steps in the FFT                  =    14000
   Number of time steps output                      =    14000
   Number of points simulated                       =      625


Mean Flow Angles:

   Vertical   =   0.0 degrees
   Horizontal =   0.0 degrees

Mean Wind Speed Profile:

   Height    Wind Speed   Horizontal Angle  Vertical Angle  U-comp (X)   V-comp (Y)   W-comp (Z)
     (m)        (m/s)         (degrees)       (degrees)       (m/s)        (m/s)        (m/s)   
   ------    ----------   ----------------  --------------  ----------   ----------   ----------
    297.5       13.03            0.00            0.00         13.03         0.00         0.00
    285.1       12.96            0.00            0.00         12.96         0.00         0.00
    272.7       12.89            0.00            0.00         12.89         0.00         0.00
    260.3       12.82            0.00            0.00         12.82         0.00         0.00
    247.9       12.75            0.00            0.00         12.75         0.00         0.00
    235.5       12.67            0.00            0.00         12.67         0.00         0.00
    223.1       12.59            0.00            0.00         12.59         0.00         0.00
    210.7       12.50            0.00            0.00         12.50         0.00         0.00
    198.3       12.41            0.00            0.00         12.41         0.00         0.00
    185.9       12.31            0.00            0.00         12.31         0.00         0.00
    173.5       12.21            0.00            0.00         12.21         0.00         0.00
    161.1       12.10            0.00            0.00         12.10         0.00         0.00
    148.7       11.99            0.00            0.00         11.99         0.00         0.00
    136.3       11.86            0.00            0.00         11.86         0.00         0.00
    123.9       11.73            0.00            0.00         11.73         0.00         0.00
    111.6       11.58            0.00            0.00         11.58         0.00         0.00
     99.2       11.42            0.00            0.00         11.42         0.00         0.00
     86.8       11.24            0.00            0.00         11.24         0.00         0.00
     74.4       11.03            0.00            0.00         11.03         0.00         0.00
     62.0       10.79            0.00            0.00         10.79         0.00         0.00
     49.6       10.51            0.00            0.00         10.51         0.00         0.00
     37.2       10.15            0.00            0.00         10.15         0.00         0.00
     24.8        9.67            0.00            0.00          9.67         0.00         0.00
     12.4        8.90            0.00            0.00          8.90         0.00         0.00
      0.0        2.63            0.00            0.00          2.63         0.00         0.00


Harvested Random Seeds after Generation of the Random Numbers:

    121953125 K 1
            0 K 2


Hub-Height Simulated Turbulence Statistical Summary:

   Type of Wind        Min (m/s)   Mean (m/s)    Max (m/s)  Sigma (m/s)       TI (%)
   ----------------    ---------   ----------    ---------  -----------       ------
   Longitudinal (u)         5.28        11.99        17.02        1.937       16.158
   Lateral (v)             -5.52         0.00         6.10        1.600       13.350
   Vertical (w)            -3.29         0.00         3.45        0.999        8.332
   U component              5.28        11.99        17.02        1.937       16.158
   V component             -5.52         0.00         6.10        1.600       13.350
   W component             -3.29         0.00         3.45        0.999        8.332
   Horizontal (U&V)         5.35        12.10        17.02        1.928       15.943
   Total                    5.37        12.14        17.03        1.924       15.849

                       Min Reynolds     Mean Reynolds    Max Reynolds    Correlation
   Product             Stress (m/s)^2   Stress (m/s)^2   Stress (m/s)^2  Coefficient
   ----------------    --------------   --------------   --------------  -----------
   u'w'                    -14.740             0.004            10.038         0.002
   u'v'                    -17.314            -0.567            17.748        -0.183
   v'w'                    -11.210            -0.120            11.607        -0.075


   Friction Velocity (Ustar)  =      0.066 m/s
   Maximum Instantaneous TKE  =     22.987 (m/s)^2
   Maximum Instantaneous CTKE =      9.619 (m/s)^2


Grid Point Variance Summary:

   Y-coord -148.73 -136.34 -123.95 -111.55  -99.16  -86.76  -74.37  -61.97  -49.58  -37.18  -24.79  -12.39    0.00   12.39   24.79   37.18   49.58   61.97   74.37   86.76   99.16  111.55  123.95  136.34  148.73

   Height   Standard deviation at grid points for the u component:
   297.47    1.822   1.895   1.887   2.048   1.971   1.870   1.924   1.829   1.710   1.765   1.778   1.823   1.808   2.037   1.934   2.047   1.901   1.835   1.879   1.685   1.698   1.745   1.744   1.756   1.696
   285.07    1.932   1.862   1.984   1.989   2.008   1.784   1.898   1.652   1.855   1.789   1.956   1.999   1.942   2.060   2.079   1.946   1.833   1.762   1.612   1.697   1.582   1.678   1.665   1.634   1.705
   272.68    1.825   1.791   1.848   1.966   1.933   1.821   1.782   1.692   1.896   1.918   1.983   2.079   2.014   1.924   1.875   1.672   1.803   1.726   1.691   1.612   1.637   1.669   1.595   1.681   1.588
   260.29    1.782   1.913   1.848   1.895   1.870   1.838   1.833   1.850   1.887   1.915   1.926   2.055   1.927   1.970   1.842   1.817   1.782   1.737   1.629   1.676   1.741   1.752   1.695   1.650   1.707
   247.89    1.783   1.701   1.803   1.763   1.765   1.748   1.799   1.928   2.004   1.852   1.997   2.105   1.751   1.666   1.804   1.861   1.867   1.856   1.844   1.784   1.756   1.775   1.754   1.833   1.905
   235.50    1.728   1.728   1.834   1.835   1.775   1.908   1.836   2.030   2.128   2.084   2.130   1.972   1.843   1.759   1.925   1.809   1.816   1.737   1.849   1.871   1.821   1.696   1.885   1.919   1.957
   223.10    1.659   1.851   1.915   1.821   1.828   1.938   2.048   2.201   2.223   2.110   2.186   1.993   1.856   1.970   1.974   1.878   1.710   1.873   1.904   1.925   1.856   1.695   1.863   1.914   1.989
   210.71    1.725   1.792   1.787   1.792   2.053   2.146   2.116   2.213   2.216   2.057   2.125   1.947   1.685   1.848   1.855   1.811   1.851   1.818   1.830   1.703   1.733   1.806   1.767   1.818   1.896
   198.31    1.888   2.014   1.966   1.994   2.040   2.092   2.038   2.036   2.124   2.213   2.088   1.892   1.797   1.812   1.824   1.835   1.828   1.867   1.803   1.862   1.729   1.718   1.674   1.687   1.828
   185.92    1.889   2.032   2.056   2.145   2.105   2.096   2.196   2.174   2.152   2.254   2.093   1.880   1.757   1.852   1.856   1.843   2.001   2.003   1.998   1.983   1.999   1.864   1.805   1.733   1.730
   173.52    1.855   1.915   2.087   2.198   2.171   2.125   2.133   2.078   2.055   2.095   2.233   2.001   1.801   1.821   1.921   1.883   1.997   1.987   2.069   1.900   2.145   2.068   1.970   1.819   1.758
   161.13    1.886   2.076   2.229   2.216   2.296   2.167   2.126   2.206   2.031   2.020   2.146   2.108   1.962   1.985   1.805   1.979   2.038   1.965   2.033   1.935   2.078   1.939   1.936   1.703   1.837
   148.73    1.916   2.116   2.173   2.325   2.332   2.254   2.235   2.067   2.045   2.032   1.985   1.901   1.937   1.833   1.939   1.949   1.968   2.008   1.923   2.008   2.008   1.912   1.703   1.675   1.772
   136.34    1.938   1.999   2.139   2.207   2.127   2.270   2.056   2.105   1.985   2.003   1.993   1.937   1.955   1.858   2.071   1.992   1.950   1.945   2.087   2.082   2.005   1.820   1.569   1.676   1.758
   123.95    1.890   2.012   2.046   2.049   2.149   2.181   2.160   2.168   2.222   2.035   2.187   1.991   1.803   1.801   1.957   2.025   2.101   1.997   1.994   1.973   1.908   1.813   1.697   1.723   1.553
   111.55    1.892   1.883   1.997   1.820   2.075   2.254   2.073   2.155   2.048   2.281   2.241   2.186   1.966   1.806   1.938   2.178   2.144   2.024   2.009   1.807   1.789   1.859   1.789   1.749   1.743
    99.16    1.857   1.832   1.729   1.880   1.915   2.149   2.025   1.954   2.102   2.270   2.353   2.260   2.193   2.089   2.170   2.128   2.107   1.886   1.828   1.676   1.738   1.728   1.779   1.758   1.765
    86.76    1.871   1.798   1.659   1.755   1.962   2.010   2.047   2.126   2.175   1.971   2.217   2.230   2.220   2.233   2.146   2.202   2.141   1.963   1.794   1.771   1.792   1.752   1.803   1.756   1.741
    74.37    1.793   1.791   1.792   1.795   1.862   1.935   2.001   1.976   1.929   1.978   2.089   2.057   1.997   2.047   2.011   2.063   1.938   1.920   1.800   1.764   1.888   1.792   1.650   1.693   1.668
    61.97    2.000   1.839   1.813   1.911   1.884   1.872   1.916   1.861   1.823   2.033   2.095   1.933   1.925   2.044   2.126   2.029   1.921   1.886   1.906   1.843   1.752   1.627   1.645   1.717   1.632
    49.58    2.092   2.075   1.926   2.094   2.005   2.101   1.865   2.017   1.831   1.842   2.033   1.991   1.858   2.002   1.951   1.822   1.911   1.896   1.831   1.801   1.725   1.686   1.732   1.702   1.646
    37.18    2.000   2.175   2.100   2.094   1.992   2.070   1.913   1.991   1.943   1.818   1.875   1.857   1.866   1.879   1.907   1.884   1.999   2.000   1.797   1.767   1.773   1.565   1.621   1.618   1.712
    24.79    2.125   2.090   2.225   2.086   2.014   2.113   2.123   1.917   1.780   1.870   1.883   1.906   1.760   1.733   1.767   1.973   1.944   1.957   1.923   1.754   1.794   1.612   1.644   1.713   1.852
    12.40    2.026   2.063   1.874   1.826   1.949   2.009   1.899   1.845   1.780   1.938   1.968   1.980   1.968   1.941   1.881   1.932   1.846   1.842   1.801   1.755   1.769   1.727   1.643   1.738   1.844
     0.00    1.956   1.855   1.755   1.829   1.860   1.872   1.853   1.868   1.951   2.034   2.087   2.067   1.932   1.860   1.953   1.903   1.805   1.845   1.707   1.805   2.023   1.983   1.867   1.794   1.948

   Height   Standard deviation at grid points for the v component:
   297.47    1.600   1.600   1.600   1.600   1.600   1.600   1.600   1.600   1.600   1.600   1.600   1.600   1.600   1.600   1.600   1.600   1.600   1.600   1.600   1.600   1.600   1.600   1.600   1.600   1.600
   285.07    1.600   1.600   1.600   1.600   1.600   1.600   1.600   1.600   1.600   1.600   1.600   1.600   1.600   1.600   1.600   1.600   1.600   1.600   1.600   1.600   1.600   1.600   1.600   1.600   1.600
   272.68    1.600   1.600   1.600   1.600   1.600   1.600   1.600   1.600   1.600   1.600   1.600   1.600   1.600   1.600   1.600   1.600   1.600   1.600   1.600   1.600   1.600   1.600   1.600   1.600   1.600
   260.29    1.600   1.600   1.600   1.600   1.600   1.600   1.600   1.600   1.600   1.600   1.600   1.600   1.600   1.600   1.600   1.600   1.600   1.600   1.600   1.600   1.600   1.600   1.600   1.600   1.600
   247.89    1.600   1.600   1.600   1.600   1.600   1.600   1.600   1.600   1.600   1.600   1.600   1.600   1.600   1.600   1.600   1.600   1.600   1.600   1.600   1.600   1.600   1.600   1.600   1.600   1.600
   235.50    1.600   1.600   1.600   1.600   1.600   1.600   1.600   1.600   1.600   1.600   1.600   1.600   1.600   1.600   1.600   1.600   1.600   1.600   1.600   1.600   1.600   1.600   1.600   1.600   1.600
   223.10    1.600   1.600   1.600   1.600   1.600   1.600   1.600   1.600   1.600   1.600   1.600   1.600   1.600   1.600   1.600   1.600   1.600   1.600   1.600   1.600   1.600   1.600   1.600   1.600   1.600
   210.71    1.600   1.600   1.600   1.600   1.600   1.600   1.600   1.600   1.600   1.600   1.600   1.600   1.600   1.600   1.600   1.600   1.600   1.600   1.600   1.600   1.600   1.600   1.600   1.600   1.600
   198.31    1.600   1.600   1.600   1.600   1.600   1.600   1.600   1.600   1.600   1.600   1.600   1.600   1.600   1.600   1.600   1.600   1.600   1.600   1.600   1.600   1.600   1.600   1.600   1.600   1.600
   185.92    1.600   1.600   1.600   1.600   1.600   1.600   1.600   1.600   1.600   1.600   1.600   1.600   1.600   1.600   1.600   1.600   1.600   1.600   1.600   1.600   1.600   1.600   1.600   1.600   1.600
   173.52    1.600   1.600   1.600   1.600   1.600   1.600   1.600   1.600   1.600   1.600   1.600   1.600   1.600   1.600   1.600   1.600   1.600   1.600   1.600   1.600   1.600   1.600   1.600   1.600   1.600
   161.13    1.600   1.600   1.600   1.600   1.600   1.600   1.600   1.600   1.600   1.600   1.600   1.600   1.600   1.600   1.600   1.600   1.600   1.600   1.600   1.600   1.600   1.600   1.600   1.600   1.600
   148.73    1.600   1.600   1.600   1.600   1.600   1.600   1.600   1.600   1.600   1.600   1.600   1.600   1.600   1.600   1.600   1.600   1.600   1.600   1.600   1.600   1.600   1.600   1.600   1.600   1.600
   136.34    1.600   1.600   1.600   1.600   1.600   1.600   1.600   1.600   1.600   1.600   1.600   1.600   1.600   1.600   1.600   1.600   1.600   1.600   1.600   1.600   1.600   1.600   1.600   1.600   1.600
   123.95    1.600   1.600   1.600   1.600   1.600   1.600   1.600   1.600   1.600   1.600   1.600   1.600   1.600   1.600   1.600   1.600   1.600   1.600   1.600   1.600   1.600   1.600   1.600   1.600   1.600
   111.55    1.600   1.600   1.600   1.600   1.600   1.600   1.600   1.600   1.600   1.600   1.600   1.600   1.600   1.600   1.600   1.600   1.600   1.600   1.600   1.600   1.600   1.600   1.600   1.600   1.600
    99.16    1.600   1.600   1.600   1.600   1.600   1.600   1.600   1.600   1.600   1.600   1.600   1.600   1.600   1.600   1.600   1.600   1.600   1.600   1.600   1.600   1.600   1.600   1.600   1.600   1.600
    86.76    1.600   1.600   1.600   1.600   1.600   1.600   1.600   1.600   1.600   1.600   1.600   1.600   1.600   1.600   1.600   1.600   1.600   1.600   1.600   1.600   1.600   1.600   1.600   1.600   1.600
    74.37    1.600   1.600   1.600   1.600   1.600   1.600   1.600   1.600   1.600   1.600   1.600   1.600   1.600   1.600   1.600   1.600   1.600   1.600   1.600   1.600   1.600   1.600   1.600   1.600   1.600
    61.97    1.600   1.600   1.600   1.600   1.600   1.600   1.600   1.600   1.600   1.600   1.600   1.600   1.600   1.600   1.600   1.600   1.600   1.600   1.600   1.600   1.600   1.600   1.600   1.600   1.600
    49.58    1.600   1.600   1.600   1.600   1.600   1.600   1.600   1.600   1.600   1.600   1.600   1.600   1.600   1.600   1.600   1.600   1.600   1.600   1.600   1.600   1.600   1.600   1.600   1.600   1.600
    37.18    1.600   1.600   1.600   1.600   1.600   1.600   1.600   1.600   1.600   1.600   1.600   1.600   1.600   1.600   1.600   1.600   1.600   1.600   1.600   1.600   1.600   1.600   1.600   1.600   1.600
    24.79    1.600   1.600   1.600   1.600   1.600   1.600   1.600   1.600   1.600   1.600   1.600   1.600   1.600   1.600   1.600   1.600   1.600   1.600   1.600   1.600   1.600   1.600   1.600   1.600   1.600
    12.40    1.600   1.600   1.600   1.600   1.600   1.600   1.600   1.600   1.600   1.600   1.600   1.600   1.600   1.600   1.600   1.600   1.600   1.600   1.600   1.600   1.600   1.600   1.600   1.600   1.600
     0.00    1.600   1.600   1.600   1.600   1.600   1.600   1.600   1.600   1.600   1.600   1.600   1.600   1.600   1.600   1.600   1.600   1.600   1.600   1.600   1.600   1.600   1.600   1.600   1.600   1.600

   Height   Standard deviation at grid points for the w component:
   297.47    0.999   0.999   0.999   0.999   0.999   0.999   0.999   0.999   0.999   0.999   0.999   0.999   0.999   0.999   0.999   0.999   0.999   0.999   0.999   0.999   0.999   0.999   0.999   0.999   0.999
   285.07    0.999   0.999   0.999   0.999   0.999   0.999   0.999   0.999   0.999   0.999   0.999   0.999   0.999   0.999   0.999   0.999   0.999   0.999   0.999   0.999   0.999   0.999   0.999   0.999   0.999
   272.68    0.999   0.999   0.999   0.999   0.999   0.999   0.999   0.999   0.999   0.999   0.999   0.999   0.999   0.999   0.999   0.999   0.999   0.999   0.999   0.999   0.999   0.999   0.999   0.999   0.999
   260.29    0.999   0.999   0.999   0.999   0.999   0.999   0.999   0.999   0.999   0.999   0.999   0.999   0.999   0.999   0.999   0.999   0.999   0.999   0.999   0.999   0.999   0.999   0.999   0.999   0.999
   247.89    0.999   0.999   0.999   0.999   0.999   0.999   0.999   0.999   0.999   0.999   0.999   0.999   0.999   0.999   0.999   0.999   0.999   0.999   0.999   0.999   0.999   0.999   0.999   0.999   0.999
   235.50    0.999   0.999   0.999   0.999   0.999   0.999   0.999   0.999   0.999   0.999   0.999   0.999   0.999   0.999   0.999   0.999   0.999   0.999   0.999   0.999   0.999   0.999   0.999   0.999   0.999
   223.10    0.999   0.999   0.999   0.999   0.999   0.999   0.999   0.999   0.999   0.999   0.999   0.999   0.999   0.999   0.999   0.999   0.999   0.999   0.999   0.999   0.999   0.999   0.999   0.999   0.999
   210.71    0.999   0.999   0.999   0.999   0.999   0.999   0.999   0.999   0.999   0.999   0.999   0.999   0.999   0.999   0.999   0.999   0.999   0.999   0.999   0.999   0.999   0.999   0.999   0.999   0.999
   198.31    0.999   0.999   0.999   0.999   0.999   0.999   0.999   0.999   0.999   0.999   0.999   0.999   0.999   0.999   0.999   0.999   0.999   0.999   0.999   0.999   0.999   0.999   0.999   0.999   0.999
   185.92    0.999   0.999   0.999   0.999   0.999   0.999   0.999   0.999   0.999   0.999   0.999   0.999   0.999   0.999   0.999   0.999   0.999   0.999   0.999   0.999   0.999   0.999   0.999   0.999   0.999
   173.52    0.999   0.999   0.999   0.999   0.999   0.999   0.999   0.999   0.999   0.999   0.999   0.999   0.999   0.999   0.999   0.999   0.999   0.999   0.999   0.999   0.999   0.999   0.999   0.999   0.999
   161.13    0.999   0.999   0.999   0.999   0.999   0.999   0.999   0.999   0.999   0.999   0.999   0.999   0.999   0.999   0.999   0.999   0.999   0.999   0.999   0.999   0.999   0.999   0.999   0.999   0.999
   148.73    0.999   0.999   0.999   0.999   0.999   0.999   0.999   0.999   0.999   0.999   0.999   0.999   0.999   0.999   0.999   0.999   0.999   0.999   0.999   0.999   0.999   0.999   0.999   0.999   0.999
   136.34    0.999   0.999   0.999   0.999   0.999   0.999   0.999   0.999   0.999   0.999   0.999   0.999   0.999   0.999   0.999   0.999   0.999   0.999   0.999   0.999   0.999   0.999   0.999   0.999   0.999
   123.95    0.999   0.999   0.999   0.999   0.999   0.999   0.999   0.999   0.999   0.999   0.999   0.999   0.999   0.999   0.999   0.999   0.999   0.999   0.999   0.999   0.999   0.999   0.999   0.999   0.999
   111.55    0.999   0.999   0.999   0.999   0.999   0.999   0.999   0.999   0.999   0.999   0.999   0.999   0.999   0.999   0.999   0.999   0.999   0.999   0.999   0.999   0.999   0.999   0.999   0.999   0.999
    99.16    0.999   0.999   0.999   0.999   0.999   0.999   0.999   0.999   0.999   0.999   0.999   0.999   0.999   0.999   0.999   0.999   0.999   0.999   0.999   0.999   0.999   0.999   0.999   0.999   0.999
    86.76    0.999   0.999   0.999   0.999   0.999   0.999   0.999   0.999   0.999   0.999   0.999   0.999   0.999   0.999   0.999   0.999   0.999   0.999   0.999   0.999   0.999   0.999   0.999   0.999   0.999
    74.37    0.999   0.999   0.999   0.999   0.999   0.999   0.999   0.999   0.999   0.999   0.999   0.999   0.999   0.999   0.999   0.999   0.999   0.999   0.999   0.999   0.999   0.999   0.999   0.999   0.999
    61.97    0.999   0.999   0.999   0.999   0.999   0.999   0.999   0.999   0.999   0.999   0.999   0.999   0.999   0.999   0.999   0.999   0.999   0.999   0.999   0.999   0.999   0.999   0.999   0.999   0.999
    49.58    0.999   0.999   0.999   0.999   0.999   0.999   0.999   0.999   0.999   0.999   0.999   0.999   0.999   0.999   0.999   0.999   0.999   0.999   0.999   0.999   0.999   0.999   0.999   0.999   0.999
    37.18    0.999   0.999   0.999   0.999   0.999   0.999   0.999   0.999   0.999   0.999   0.999   0.999   0.999   0.999   0.999   0.999   0.999   0.999   0.999   0.999   0.999   0.999   0.999   0.999   0.999
    24.79    0.999   0.999   0.999   0.999   0.999   0.999   0.999   0.999   0.999   0.999   0.999   0.999   0.999   0.999   0.999   0.999   0.999   0.999   0.999   0.999   0.999   0.999   0.999   0.999   0.999
    12.40    0.999   0.999   0.999   0.999   0.999   0.999   0.999   0.999   0.999   0.999   0.999   0.999   0.999   0.999   0.999   0.999   0.999   0.999   0.999   0.999   0.999   0.999   0.999   0.999   0.999
     0.00    0.999   0.999   0.999   0.999   0.999   0.999   0.999   0.999   0.999   0.999   0.999   0.999   0.999   0.999   0.999   0.999   0.999   0.999   0.999   0.999   0.999   0.999   0.999   0.999   0.999

   Mean standard deviation across all grid points:
      u component:    1.914 m/s
      v component:    1.600 m/s
      w component:    0.999 m/s


U-component (X) statistics from the interpolated hub point:

   Mean =  11.9878 m/s
   TI   =  16.1585 %


Processing complete.  1803.6 CPU seconds used.
