
This summary file was generated by TurbSim (from OpenFAST--128-NOTFOUND) on 23-Apr-2025 at 12:25:38.


Runtime Options:

 438466540  Random seed #1
    RANLUX  Type of random number generator
         F  Output binary HH turbulence parameters?
         F  Output formatted turbulence parameters?
         F  Output AeroDyn HH files?
         T  Output AeroDyn FF files?
         F  Output BLADED FF files?
         F  Output tower data?
         F  Output HAWC FF files?
         F  Output formatted FF files?
         F  Output coherent turbulence time step file?
 0 -  NONE  IEC turbulence models scaled to exact specified standard deviation


Turbine/Model Specifications:

        25  Vertical grid-point matrix dimension
        25  Horizontal grid-point matrix dimension
     0.050  Time step [seconds]
   700.000  Analysis time [seconds]
   700.000  Usable output time [seconds]
   148.735  Hub height [m]
   297.469  Grid height [m]
   297.469  Grid width [m]
     0.000  Vertical flow angle [degrees]
     0.000  Horizontal flow angle [degrees]


Meteorological Boundary Conditions:

    IECKAI  IEC Kaimal spectral model
         1  IEC standard: IEC 61400-1 Ed. 3: 2005
         B  IEC turbulence characteristic
       NTM  IEC Normal Turbulence Model
       N/A  IEC Extreme Turbulence Model (ETM) "c" parameter [m/s]
       PL   Wind profile type
   150.000  Reference height [m]
    16.000  Reference wind speed [m/s]
       N/A  Jet height [m]
     0.120  Power law exponent
     0.030  Surface roughness length [m]


Non-IEC Meteorological Boundary Conditions:

       N/A  Site latitude [degrees]
       N/A  Gradient Richardson number
       N/A  Friction or shear velocity [m/s]
       N/A  Mixing layer depth [m]
       N/A  Mean hub u'w' Reynolds stress
       N/A  Mean hub u'v' Reynolds stress
       N/A  Mean hub v'w' Reynolds stress


Spatial Coherence Models:

       IEC  u-component coherence model
      NONE  v-component coherence model
      NONE  w-component coherence model
(   12.000, 0.353E-03)  u-component coherence parameters
                   N/A  v-component coherence parameters
                   N/A  w-component coherence parameters
       N/A  Coherence exponent


You have requested that the following file(s) be generated:

   IEA_w_TMD_NTM_U16.000000_Seed438466540.0.bts (AeroDyn/TurbSim full-field wind file)


Turbulence Simulation Scaling Parameter Summary:

   Turbulence model used                            =  IEC Kaimal
   Turbulence characteristic                        =  B
   IEC turbulence type                              =  Normal Turbulence Model
   IEC standard                                     =  IEC 61400-1 Ed. 3: 2005
   Mean wind speed at hub height                    =   15.984 m/s
   Expected value of turbulence intensity at 15 m/s =   14.000%
   Characteristic value of standard deviation       =    2.462 m/s
   Turbulence scale                                 =   42.000 m
   u-component integral scale                       =  340.200 m
   Coherency scale                                  =  340.200 m
   Characteristic value of hub turbulence intensity =   15.405%
   Gradient Richardson number                       =    0.000

   Wind profile type                                =  Power law
   Power law exponent                               =    0.120
   Mean shear across rotor disk                     =    0.047 (m/s)/m
   Assumed rotor diameter                           =  297.469 m
   Surface roughness length                         =    0.030 m

   Nyquist frequency of turbulent wind field        =   10.000 Hz

   Number of time steps in the FFT                  =    14000
   Number of time steps output                      =    14000
   Number of points simulated                       =      625


Mean Flow Angles:

   Vertical   =   0.0 degrees
   Horizontal =   0.0 degrees

Mean Wind Speed Profile:

   Height    Wind Speed   Horizontal Angle  Vertical Angle  U-comp (X)   V-comp (Y)   W-comp (Z)
     (m)        (m/s)         (degrees)       (degrees)       (m/s)        (m/s)        (m/s)   
   ------    ----------   ----------------  --------------  ----------   ----------   ----------
    297.5       17.37            0.00            0.00         17.37         0.00         0.00
    285.1       17.28            0.00            0.00         17.28         0.00         0.00
    272.7       17.19            0.00            0.00         17.19         0.00         0.00
    260.3       17.09            0.00            0.00         17.09         0.00         0.00
    247.9       16.99            0.00            0.00         16.99         0.00         0.00
    235.5       16.89            0.00            0.00         16.89         0.00         0.00
    223.1       16.78            0.00            0.00         16.78         0.00         0.00
    210.7       16.67            0.00            0.00         16.67         0.00         0.00
    198.3       16.55            0.00            0.00         16.55         0.00         0.00
    185.9       16.42            0.00            0.00         16.42         0.00         0.00
    173.5       16.28            0.00            0.00         16.28         0.00         0.00
    161.1       16.14            0.00            0.00         16.14         0.00         0.00
    148.7       15.98            0.00            0.00         15.98         0.00         0.00
    136.3       15.82            0.00            0.00         15.82         0.00         0.00
    123.9       15.64            0.00            0.00         15.64         0.00         0.00
    111.6       15.44            0.00            0.00         15.44         0.00         0.00
     99.2       15.22            0.00            0.00         15.22         0.00         0.00
     86.8       14.98            0.00            0.00         14.98         0.00         0.00
     74.4       14.71            0.00            0.00         14.71         0.00         0.00
     62.0       14.39            0.00            0.00         14.39         0.00         0.00
     49.6       14.01            0.00            0.00         14.01         0.00         0.00
     37.2       13.53            0.00            0.00         13.53         0.00         0.00
     24.8       12.89            0.00            0.00         12.89         0.00         0.00
     12.4       11.86            0.00            0.00         11.86         0.00         0.00
      0.0        3.51            0.00            0.00          3.51         0.00         0.00


Harvested Random Seeds after Generation of the Random Numbers:

    121953125 K 1
            0 K 2


Hub-Height Simulated Turbulence Statistical Summary:

   Type of Wind        Min (m/s)   Mean (m/s)    Max (m/s)  Sigma (m/s)       TI (%)
   ----------------    ---------   ----------    ---------  -----------       ------
   Longitudinal (u)         9.59        15.98        22.65        1.999       12.508
   Lateral (v)             -9.20         0.00         6.41        1.932       12.090
   Vertical (w)            -3.89        -0.00         4.40        1.200        7.508
   U component              9.59        15.98        22.65        1.999       12.508
   V component             -9.20         0.00         6.41        1.932       12.090
   W component             -3.89        -0.00         4.40        1.200        7.508
   Horizontal (U&V)         9.63        16.10        23.61        2.014       12.512
   Total                    9.64        16.14        23.63        2.012       12.464

                       Min Reynolds     Mean Reynolds    Max Reynolds    Correlation
   Product             Stress (m/s)^2   Stress (m/s)^2   Stress (m/s)^2  Coefficient
   ----------------    --------------   --------------   --------------  -----------
   u'w'                    -15.978             0.128            18.108         0.053
   u'v'                    -52.274            -0.271            18.200        -0.070
   v'w'                    -25.500            -0.107            20.416        -0.046


   Friction Velocity (Ustar)  =      0.358 m/s
   Maximum Instantaneous TKE  =     57.039 (m/s)^2
   Maximum Instantaneous CTKE =     26.625 (m/s)^2


Grid Point Variance Summary:

   Y-coord -148.73 -136.34 -123.95 -111.55  -99.16  -86.76  -74.37  -61.97  -49.58  -37.18  -24.79  -12.39    0.00   12.39   24.79   37.18   49.58   61.97   74.37   86.76   99.16  111.55  123.95  136.34  148.73

   Height   Standard deviation at grid points for the u component:
   297.47    2.328   2.418   2.420   2.540   2.513   2.481   2.577   2.662   2.511   2.512   2.386   2.298   2.380   2.505   2.546   2.575   2.703   2.614   2.645   2.604   2.244   2.132   2.196   2.189   2.172
   285.07    2.279   2.536   2.657   2.547   2.482   2.629   2.528   2.502   2.316   2.212   2.212   2.397   2.116   2.366   2.554   2.620   2.470   2.721   2.716   2.567   2.382   2.275   2.252   2.370   2.316
   272.68    2.361   2.438   2.552   2.532   2.553   2.569   2.492   2.378   2.230   2.130   2.180   2.127   2.157   2.413   2.465   2.492   2.536   2.672   2.605   2.478   2.357   2.114   2.227   2.441   2.511
   260.29    2.232   2.439   2.352   2.408   2.542   2.391   2.370   2.269   2.221   2.174   2.231   2.130   2.213   2.325   2.287   2.441   2.504   2.521   2.485   2.504   2.333   2.228   2.220   2.474   2.473
   247.89    2.105   2.314   2.482   2.509   2.411   2.484   2.448   2.288   2.388   2.303   2.190   2.260   2.242   2.489   2.465   2.456   2.433   2.385   2.470   2.324   2.360   2.377   2.323   2.435   2.475
   235.50    2.171   2.304   2.533   2.644   2.546   2.350   2.393   2.425   2.323   2.380   2.371   2.296   2.289   2.350   2.409   2.424   2.332   2.220   2.328   2.256   2.345   2.475   2.505   2.452   2.630
   223.10    2.256   2.283   2.395   2.437   2.377   2.214   2.357   2.290   2.247   2.282   2.370   2.302   2.398   2.197   2.264   2.280   2.160   2.257   2.342   2.166   2.253   2.439   2.412   2.479   2.431
   210.71    2.194   2.310   2.365   2.325   2.321   2.250   2.296   2.198   2.205   2.227   2.331   2.193   2.250   2.326   2.285   2.398   2.376   2.408   2.228   2.205   2.307   2.526   2.419   2.438   2.353
   198.31    2.271   2.296   2.305   2.128   2.199   2.277   2.106   2.117   2.203   2.264   2.197   2.159   2.164   2.373   2.354   2.267   2.285   2.284   2.228   2.149   2.263   2.240   2.320   2.397   2.420
   185.92    2.319   2.373   2.244   2.275   2.156   2.253   2.247   2.016   2.109   2.093   2.055   2.114   2.262   2.299   2.394   2.241   2.290   2.239   2.198   2.251   2.298   2.161   2.145   2.283   2.385
   173.52    2.238   2.308   2.171   2.181   2.052   2.184   2.029   2.118   2.124   2.068   1.951   2.159   2.221   2.097   2.158   2.257   2.269   2.256   2.141   2.215   2.362   2.218   2.158   2.272   2.205
   161.13    2.166   2.215   2.260   2.069   1.982   2.142   2.117   1.912   2.021   2.007   1.959   2.142   2.200   2.056   2.235   2.413   2.390   2.188   2.137   2.068   2.158   2.174   2.257   2.226   2.243
   148.73    2.111   2.072   2.062   2.219   2.129   2.183   2.134   2.089   1.965   2.120   2.111   2.033   1.999   2.244   2.274   2.322   2.207   2.102   2.075   2.238   2.228   2.264   2.141   2.271   2.346
   136.34    1.995   2.019   2.028   2.103   2.162   2.307   2.216   2.280   2.146   2.231   2.141   2.309   2.261   2.344   2.284   2.075   2.120   2.102   2.204   2.112   2.213   2.065   2.173   2.268   2.322
   123.95    2.095   2.046   2.131   2.246   2.245   2.341   2.248   2.159   2.162   2.185   2.208   2.358   2.397   2.354   2.262   2.182   2.123   2.111   2.067   2.148   2.225   2.044   2.090   2.155   2.244
   111.55    2.183   2.173   2.265   2.316   2.216   2.267   2.260   2.302   2.223   2.301   2.357   2.522   2.466   2.347   2.241   2.175   2.360   2.107   1.992   2.104   1.994   2.070   2.176   2.171   2.150
    99.16    2.226   2.255   2.355   2.248   2.212   2.196   2.228   2.362   2.408   2.239   2.320   2.491   2.536   2.328   2.415   2.278   2.271   2.213   2.132   2.034   2.048   2.061   2.115   2.103   2.271
    86.76    2.246   2.284   2.240   2.333   2.302   2.212   2.288   2.501   2.453   2.168   2.251   2.498   2.569   2.291   2.258   2.232   2.292   2.323   2.101   1.983   1.926   2.109   2.150   2.215   2.275
    74.37    2.244   2.223   2.109   2.124   2.089   2.320   2.352   2.499   2.466   2.286   2.421   2.489   2.319   2.272   2.234   2.167   2.366   2.144   2.039   1.970   2.079   2.242   2.289   2.213   2.325
    61.97    2.284   2.217   2.176   2.196   2.250   2.399   2.392   2.427   2.376   2.279   2.370   2.467   2.494   2.310   2.340   2.198   2.148   1.924   1.941   1.984   2.144   2.313   2.223   2.301   2.332
    49.58    2.106   2.106   1.987   2.275   2.291   2.240   2.216   2.302   2.415   2.475   2.255   2.240   2.363   2.331   2.342   2.274   2.019   1.788   1.796   1.933   2.078   2.325   2.305   2.243   2.325
    37.18    1.986   1.887   2.052   2.266   2.345   2.292   2.214   2.175   2.383   2.595   2.586   2.385   2.330   2.070   2.271   2.454   2.145   1.858   1.821   1.927   2.227   2.413   2.432   2.391   2.468
    24.79    2.070   2.099   2.087   2.244   2.357   2.393   2.053   2.083   2.225   2.416   2.423   2.315   2.362   2.234   2.298   2.423   2.211   1.943   2.025   2.080   2.310   2.364   2.530   2.442   2.378
    12.40    2.260   2.287   2.211   2.296   2.347   2.312   2.185   2.171   2.186   2.283   2.369   2.236   2.346   2.276   2.295   2.430   2.333   2.085   1.977   2.132   2.389   2.457   2.383   2.526   2.469
     0.00    2.379   2.286   2.315   2.261   2.295   2.341   2.142   2.207   2.267   2.201   2.218   2.212   2.379   2.363   2.341   2.404   2.329   2.251   2.043   2.103   2.254   2.431   2.411   2.426   2.517

   Height   Standard deviation at grid points for the v component:
   297.47    1.932   1.932   1.932   1.932   1.932   1.932   1.932   1.932   1.932   1.932   1.932   1.932   1.932   1.932   1.932   1.932   1.932   1.932   1.932   1.932   1.932   1.932   1.932   1.932   1.932
   285.07    1.932   1.932   1.932   1.932   1.932   1.932   1.932   1.932   1.932   1.932   1.932   1.932   1.932   1.932   1.932   1.932   1.932   1.932   1.932   1.932   1.932   1.932   1.932   1.932   1.932
   272.68    1.932   1.932   1.932   1.932   1.932   1.932   1.932   1.932   1.932   1.932   1.932   1.932   1.932   1.932   1.932   1.932   1.932   1.932   1.932   1.932   1.932   1.932   1.932   1.932   1.932
   260.29    1.932   1.932   1.932   1.932   1.932   1.932   1.932   1.932   1.932   1.932   1.932   1.932   1.932   1.932   1.932   1.932   1.932   1.932   1.932   1.932   1.932   1.932   1.932   1.932   1.932
   247.89    1.932   1.932   1.932   1.932   1.932   1.932   1.932   1.932   1.932   1.932   1.932   1.932   1.932   1.932   1.932   1.932   1.932   1.932   1.932   1.932   1.932   1.932   1.932   1.932   1.932
   235.50    1.932   1.932   1.932   1.932   1.932   1.932   1.932   1.932   1.932   1.932   1.932   1.932   1.932   1.932   1.932   1.932   1.932   1.932   1.932   1.932   1.932   1.932   1.932   1.932   1.932
   223.10    1.932   1.932   1.932   1.932   1.932   1.932   1.932   1.932   1.932   1.932   1.932   1.932   1.932   1.932   1.932   1.932   1.932   1.932   1.932   1.932   1.932   1.932   1.932   1.932   1.932
   210.71    1.932   1.932   1.932   1.932   1.932   1.932   1.932   1.932   1.932   1.932   1.932   1.932   1.932   1.932   1.932   1.932   1.932   1.932   1.932   1.932   1.932   1.932   1.932   1.932   1.932
   198.31    1.932   1.932   1.932   1.932   1.932   1.932   1.932   1.932   1.932   1.932   1.932   1.932   1.932   1.932   1.932   1.932   1.932   1.932   1.932   1.932   1.932   1.932   1.932   1.932   1.932
   185.92    1.932   1.932   1.932   1.932   1.932   1.932   1.932   1.932   1.932   1.932   1.932   1.932   1.932   1.932   1.932   1.932   1.932   1.932   1.932   1.932   1.932   1.932   1.932   1.932   1.932
   173.52    1.932   1.932   1.932   1.932   1.932   1.932   1.932   1.932   1.932   1.932   1.932   1.932   1.932   1.932   1.932   1.932   1.932   1.932   1.932   1.932   1.932   1.932   1.932   1.932   1.932
   161.13    1.932   1.932   1.932   1.932   1.932   1.932   1.932   1.932   1.932   1.932   1.932   1.932   1.932   1.932   1.932   1.932   1.932   1.932   1.932   1.932   1.932   1.932   1.932   1.932   1.932
   148.73    1.932   1.932   1.932   1.932   1.932   1.932   1.932   1.932   1.932   1.932   1.932   1.932   1.932   1.932   1.932   1.932   1.932   1.932   1.932   1.932   1.932   1.932   1.932   1.932   1.932
   136.34    1.932   1.932   1.932   1.932   1.932   1.932   1.932   1.932   1.932   1.932   1.932   1.932   1.932   1.932   1.932   1.932   1.932   1.932   1.932   1.932   1.932   1.932   1.932   1.932   1.932
   123.95    1.932   1.932   1.932   1.932   1.932   1.932   1.932   1.932   1.932   1.932   1.932   1.932   1.932   1.932   1.932   1.932   1.932   1.932   1.932   1.932   1.932   1.932   1.932   1.932   1.932
   111.55    1.932   1.932   1.932   1.932   1.932   1.932   1.932   1.932   1.932   1.932   1.932   1.932   1.932   1.932   1.932   1.932   1.932   1.932   1.932   1.932   1.932   1.932   1.932   1.932   1.932
    99.16    1.932   1.932   1.932   1.932   1.932   1.932   1.932   1.932   1.932   1.932   1.932   1.932   1.932   1.932   1.932   1.932   1.932   1.932   1.932   1.932   1.932   1.932   1.932   1.932   1.932
    86.76    1.932   1.932   1.932   1.932   1.932   1.932   1.932   1.932   1.932   1.932   1.932   1.932   1.932   1.932   1.932   1.932   1.932   1.932   1.932   1.932   1.932   1.932   1.932   1.932   1.932
    74.37    1.932   1.932   1.932   1.932   1.932   1.932   1.932   1.932   1.932   1.932   1.932   1.932   1.932   1.932   1.932   1.932   1.932   1.932   1.932   1.932   1.932   1.932   1.932   1.932   1.932
    61.97    1.932   1.932   1.932   1.932   1.932   1.932   1.932   1.932   1.932   1.932   1.932   1.932   1.932   1.932   1.932   1.932   1.932   1.932   1.932   1.932   1.932   1.932   1.932   1.932   1.932
    49.58    1.932   1.932   1.932   1.932   1.932   1.932   1.932   1.932   1.932   1.932   1.932   1.932   1.932   1.932   1.932   1.932   1.932   1.932   1.932   1.932   1.932   1.932   1.932   1.932   1.932
    37.18    1.932   1.932   1.932   1.932   1.932   1.932   1.932   1.932   1.932   1.932   1.932   1.932   1.932   1.932   1.932   1.932   1.932   1.932   1.932   1.932   1.932   1.932   1.932   1.932   1.932
    24.79    1.932   1.932   1.932   1.932   1.932   1.932   1.932   1.932   1.932   1.932   1.932   1.932   1.932   1.932   1.932   1.932   1.932   1.932   1.932   1.932   1.932   1.932   1.932   1.932   1.932
    12.40    1.932   1.932   1.932   1.932   1.932   1.932   1.932   1.932   1.932   1.932   1.932   1.932   1.932   1.932   1.932   1.932   1.932   1.932   1.932   1.932   1.932   1.932   1.932   1.932   1.932
     0.00    1.932   1.932   1.932   1.932   1.932   1.932   1.932   1.932   1.932   1.932   1.932   1.932   1.932   1.932   1.932   1.932   1.932   1.932   1.932   1.932   1.932   1.932   1.932   1.932   1.932

   Height   Standard deviation at grid points for the w component:
   297.47    1.200   1.200   1.200   1.200   1.200   1.200   1.200   1.200   1.200   1.200   1.200   1.200   1.200   1.200   1.200   1.200   1.200   1.200   1.200   1.200   1.200   1.200   1.200   1.200   1.200
   285.07    1.200   1.200   1.200   1.200   1.200   1.200   1.200   1.200   1.200   1.200   1.200   1.200   1.200   1.200   1.200   1.200   1.200   1.200   1.200   1.200   1.200   1.200   1.200   1.200   1.200
   272.68    1.200   1.200   1.200   1.200   1.200   1.200   1.200   1.200   1.200   1.200   1.200   1.200   1.200   1.200   1.200   1.200   1.200   1.200   1.200   1.200   1.200   1.200   1.200   1.200   1.200
   260.29    1.200   1.200   1.200   1.200   1.200   1.200   1.200   1.200   1.200   1.200   1.200   1.200   1.200   1.200   1.200   1.200   1.200   1.200   1.200   1.200   1.200   1.200   1.200   1.200   1.200
   247.89    1.200   1.200   1.200   1.200   1.200   1.200   1.200   1.200   1.200   1.200   1.200   1.200   1.200   1.200   1.200   1.200   1.200   1.200   1.200   1.200   1.200   1.200   1.200   1.200   1.200
   235.50    1.200   1.200   1.200   1.200   1.200   1.200   1.200   1.200   1.200   1.200   1.200   1.200   1.200   1.200   1.200   1.200   1.200   1.200   1.200   1.200   1.200   1.200   1.200   1.200   1.200
   223.10    1.200   1.200   1.200   1.200   1.200   1.200   1.200   1.200   1.200   1.200   1.200   1.200   1.200   1.200   1.200   1.200   1.200   1.200   1.200   1.200   1.200   1.200   1.200   1.200   1.200
   210.71    1.200   1.200   1.200   1.200   1.200   1.200   1.200   1.200   1.200   1.200   1.200   1.200   1.200   1.200   1.200   1.200   1.200   1.200   1.200   1.200   1.200   1.200   1.200   1.200   1.200
   198.31    1.200   1.200   1.200   1.200   1.200   1.200   1.200   1.200   1.200   1.200   1.200   1.200   1.200   1.200   1.200   1.200   1.200   1.200   1.200   1.200   1.200   1.200   1.200   1.200   1.200
   185.92    1.200   1.200   1.200   1.200   1.200   1.200   1.200   1.200   1.200   1.200   1.200   1.200   1.200   1.200   1.200   1.200   1.200   1.200   1.200   1.200   1.200   1.200   1.200   1.200   1.200
   173.52    1.200   1.200   1.200   1.200   1.200   1.200   1.200   1.200   1.200   1.200   1.200   1.200   1.200   1.200   1.200   1.200   1.200   1.200   1.200   1.200   1.200   1.200   1.200   1.200   1.200
   161.13    1.200   1.200   1.200   1.200   1.200   1.200   1.200   1.200   1.200   1.200   1.200   1.200   1.200   1.200   1.200   1.200   1.200   1.200   1.200   1.200   1.200   1.200   1.200   1.200   1.200
   148.73    1.200   1.200   1.200   1.200   1.200   1.200   1.200   1.200   1.200   1.200   1.200   1.200   1.200   1.200   1.200   1.200   1.200   1.200   1.200   1.200   1.200   1.200   1.200   1.200   1.200
   136.34    1.200   1.200   1.200   1.200   1.200   1.200   1.200   1.200   1.200   1.200   1.200   1.200   1.200   1.200   1.200   1.200   1.200   1.200   1.200   1.200   1.200   1.200   1.200   1.200   1.200
   123.95    1.200   1.200   1.200   1.200   1.200   1.200   1.200   1.200   1.200   1.200   1.200   1.200   1.200   1.200   1.200   1.200   1.200   1.200   1.200   1.200   1.200   1.200   1.200   1.200   1.200
   111.55    1.200   1.200   1.200   1.200   1.200   1.200   1.200   1.200   1.200   1.200   1.200   1.200   1.200   1.200   1.200   1.200   1.200   1.200   1.200   1.200   1.200   1.200   1.200   1.200   1.200
    99.16    1.200   1.200   1.200   1.200   1.200   1.200   1.200   1.200   1.200   1.200   1.200   1.200   1.200   1.200   1.200   1.200   1.200   1.200   1.200   1.200   1.200   1.200   1.200   1.200   1.200
    86.76    1.200   1.200   1.200   1.200   1.200   1.200   1.200   1.200   1.200   1.200   1.200   1.200   1.200   1.200   1.200   1.200   1.200   1.200   1.200   1.200   1.200   1.200   1.200   1.200   1.200
    74.37    1.200   1.200   1.200   1.200   1.200   1.200   1.200   1.200   1.200   1.200   1.200   1.200   1.200   1.200   1.200   1.200   1.200   1.200   1.200   1.200   1.200   1.200   1.200   1.200   1.200
    61.97    1.200   1.200   1.200   1.200   1.200   1.200   1.200   1.200   1.200   1.200   1.200   1.200   1.200   1.200   1.200   1.200   1.200   1.200   1.200   1.200   1.200   1.200   1.200   1.200   1.200
    49.58    1.200   1.200   1.200   1.200   1.200   1.200   1.200   1.200   1.200   1.200   1.200   1.200   1.200   1.200   1.200   1.200   1.200   1.200   1.200   1.200   1.200   1.200   1.200   1.200   1.200
    37.18    1.200   1.200   1.200   1.200   1.200   1.200   1.200   1.200   1.200   1.200   1.200   1.200   1.200   1.200   1.200   1.200   1.200   1.200   1.200   1.200   1.200   1.200   1.200   1.200   1.200
    24.79    1.200   1.200   1.200   1.200   1.200   1.200   1.200   1.200   1.200   1.200   1.200   1.200   1.200   1.200   1.200   1.200   1.200   1.200   1.200   1.200   1.200   1.200   1.200   1.200   1.200
    12.40    1.200   1.200   1.200   1.200   1.200   1.200   1.200   1.200   1.200   1.200   1.200   1.200   1.200   1.200   1.200   1.200   1.200   1.200   1.200   1.200   1.200   1.200   1.200   1.200   1.200
     0.00    1.200   1.200   1.200   1.200   1.200   1.200   1.200   1.200   1.200   1.200   1.200   1.200   1.200   1.200   1.200   1.200   1.200   1.200   1.200   1.200   1.200   1.200   1.200   1.200   1.200

   Mean standard deviation across all grid points:
      u component:    2.276 m/s
      v component:    1.932 m/s
      w component:    1.200 m/s


U-component (X) statistics from the interpolated hub point:

   Mean =  15.9837 m/s
   TI   =  12.5084 %


Processing complete.  1361.2 CPU seconds used.
