
This summary file was generated by TurbSim (from OpenFAST--128-NOTFOUND) on 23-Apr-2025 at 12:22:11.


Runtime Options:

1501552846  Random seed #1
    RANLUX  Type of random number generator
         F  Output binary HH turbulence parameters?
         F  Output formatted turbulence parameters?
         F  Output AeroDyn HH files?
         T  Output AeroDyn FF files?
         F  Output BLADED FF files?
         F  Output tower data?
         F  Output HAWC FF files?
         F  Output formatted FF files?
         F  Output coherent turbulence time step file?
 0 -  NONE  IEC turbulence models scaled to exact specified standard deviation


Turbine/Model Specifications:

        25  Vertical grid-point matrix dimension
        25  Horizontal grid-point matrix dimension
     0.050  Time step [seconds]
   700.000  Analysis time [seconds]
   700.000  Usable output time [seconds]
   148.735  Hub height [m]
   297.469  Grid height [m]
   297.469  Grid width [m]
     0.000  Vertical flow angle [degrees]
     0.000  Horizontal flow angle [degrees]


Meteorological Boundary Conditions:

    IECKAI  IEC Kaimal spectral model
         1  IEC standard: IEC 61400-1 Ed. 3: 2005
         B  IEC turbulence characteristic
       NTM  IEC Normal Turbulence Model
       N/A  IEC Extreme Turbulence Model (ETM) "c" parameter [m/s]
       PL   Wind profile type
   150.000  Reference height [m]
     8.000  Reference wind speed [m/s]
       N/A  Jet height [m]
     0.120  Power law exponent
     0.030  Surface roughness length [m]


Non-IEC Meteorological Boundary Conditions:

       N/A  Site latitude [degrees]
       N/A  Gradient Richardson number
       N/A  Friction or shear velocity [m/s]
       N/A  Mixing layer depth [m]
       N/A  Mean hub u'w' Reynolds stress
       N/A  Mean hub u'v' Reynolds stress
       N/A  Mean hub v'w' Reynolds stress


Spatial Coherence Models:

       IEC  u-component coherence model
      NONE  v-component coherence model
      NONE  w-component coherence model
(   12.000, 0.353E-03)  u-component coherence parameters
                   N/A  v-component coherence parameters
                   N/A  w-component coherence parameters
       N/A  Coherence exponent


You have requested that the following file(s) be generated:

   IEA_w_TMD_NTM_U8.000000_Seed1501552846.0.bts (AeroDyn/TurbSim full-field wind file)


Turbulence Simulation Scaling Parameter Summary:

   Turbulence model used                            =  IEC Kaimal
   Turbulence characteristic                        =  B
   IEC turbulence type                              =  Normal Turbulence Model
   IEC standard                                     =  IEC 61400-1 Ed. 3: 2005
   Mean wind speed at hub height                    =    7.992 m/s
   Expected value of turbulence intensity at 15 m/s =   14.000%
   Characteristic value of standard deviation       =    1.623 m/s
   Turbulence scale                                 =   42.000 m
   u-component integral scale                       =  340.200 m
   Coherency scale                                  =  340.200 m
   Characteristic value of hub turbulence intensity =   20.310%
   Gradient Richardson number                       =    0.000

   Wind profile type                                =  Power law
   Power law exponent                               =    0.120
   Mean shear across rotor disk                     =    0.023 (m/s)/m
   Assumed rotor diameter                           =  297.469 m
   Surface roughness length                         =    0.030 m

   Nyquist frequency of turbulent wind field        =   10.000 Hz

   Number of time steps in the FFT                  =    14000
   Number of time steps output                      =    14000
   Number of points simulated                       =      625


Mean Flow Angles:

   Vertical   =   0.0 degrees
   Horizontal =   0.0 degrees

Mean Wind Speed Profile:

   Height    Wind Speed   Horizontal Angle  Vertical Angle  U-comp (X)   V-comp (Y)   W-comp (Z)
     (m)        (m/s)         (degrees)       (degrees)       (m/s)        (m/s)        (m/s)   
   ------    ----------   ----------------  --------------  ----------   ----------   ----------
    297.5        8.69            0.00            0.00          8.69         0.00         0.00
    285.1        8.64            0.00            0.00          8.64         0.00         0.00
    272.7        8.59            0.00            0.00          8.59         0.00         0.00
    260.3        8.55            0.00            0.00          8.55         0.00         0.00
    247.9        8.50            0.00            0.00          8.50         0.00         0.00
    235.5        8.44            0.00            0.00          8.44         0.00         0.00
    223.1        8.39            0.00            0.00          8.39         0.00         0.00
    210.7        8.33            0.00            0.00          8.33         0.00         0.00
    198.3        8.27            0.00            0.00          8.27         0.00         0.00
    185.9        8.21            0.00            0.00          8.21         0.00         0.00
    173.5        8.14            0.00            0.00          8.14         0.00         0.00
    161.1        8.07            0.00            0.00          8.07         0.00         0.00
    148.7        7.99            0.00            0.00          7.99         0.00         0.00
    136.3        7.91            0.00            0.00          7.91         0.00         0.00
    123.9        7.82            0.00            0.00          7.82         0.00         0.00
    111.6        7.72            0.00            0.00          7.72         0.00         0.00
     99.2        7.61            0.00            0.00          7.61         0.00         0.00
     86.8        7.49            0.00            0.00          7.49         0.00         0.00
     74.4        7.35            0.00            0.00          7.35         0.00         0.00
     62.0        7.19            0.00            0.00          7.19         0.00         0.00
     49.6        7.00            0.00            0.00          7.00         0.00         0.00
     37.2        6.77            0.00            0.00          6.77         0.00         0.00
     24.8        6.45            0.00            0.00          6.45         0.00         0.00
     12.4        5.93            0.00            0.00          5.93         0.00         0.00
      0.0        1.76            0.00            0.00          1.76         0.00         0.00


Harvested Random Seeds after Generation of the Random Numbers:

    121953125 K 1
            0 K 2


Hub-Height Simulated Turbulence Statistical Summary:

   Type of Wind        Min (m/s)   Mean (m/s)    Max (m/s)  Sigma (m/s)       TI (%)
   ----------------    ---------   ----------    ---------  -----------       ------
   Longitudinal (u)         2.19         7.99        13.67        1.597       19.988
   Lateral (v)             -3.68         0.00         4.96        1.265       15.834
   Vertical (w)            -2.91        -0.00         3.03        0.796        9.959
   U component              2.19         7.99        13.67        1.597       19.988
   V component             -3.68         0.00         4.96        1.265       15.834
   W component             -2.91        -0.00         3.03        0.796        9.959
   Horizontal (U&V)         2.61         8.10        13.75        1.568       19.364
   Total                    2.61         8.14        13.78        1.563       19.203

                       Min Reynolds     Mean Reynolds    Max Reynolds    Correlation
   Product             Stress (m/s)^2   Stress (m/s)^2   Stress (m/s)^2  Coefficient
   ----------------    --------------   --------------   --------------  -----------
   u'w'                     -5.628            -0.002             9.921        -0.002
   u'v'                    -19.929            -0.044            10.440        -0.022
   v'w'                     -9.539             0.008             5.952         0.008


   Friction Velocity (Ustar)  =      0.046 m/s
   Maximum Instantaneous TKE  =     20.749 (m/s)^2
   Maximum Instantaneous CTKE =     10.295 (m/s)^2


Grid Point Variance Summary:

   Y-coord -148.73 -136.34 -123.95 -111.55  -99.16  -86.76  -74.37  -61.97  -49.58  -37.18  -24.79  -12.39    0.00   12.39   24.79   37.18   49.58   61.97   74.37   86.76   99.16  111.55  123.95  136.34  148.73

   Height   Standard deviation at grid points for the u component:
   297.47    1.464   1.489   1.597   1.592   1.606   1.475   1.456   1.409   1.434   1.483   1.395   1.508   1.367   1.482   1.499   1.538   1.362   1.329   1.379   1.330   1.240   1.193   1.251   1.408   1.493
   285.07    1.456   1.515   1.449   1.523   1.497   1.433   1.565   1.459   1.292   1.392   1.462   1.509   1.449   1.536   1.487   1.430   1.420   1.435   1.354   1.462   1.375   1.323   1.353   1.445   1.550
   272.68    1.586   1.649   1.598   1.467   1.479   1.405   1.518   1.578   1.552   1.400   1.523   1.497   1.480   1.520   1.558   1.376   1.341   1.442   1.494   1.546   1.569   1.472   1.433   1.613   1.767
   260.29    1.552   1.545   1.506   1.381   1.499   1.484   1.425   1.574   1.320   1.355   1.413   1.286   1.384   1.316   1.342   1.230   1.311   1.399   1.486   1.477   1.525   1.586   1.604   1.611   1.657
   247.89    1.509   1.507   1.474   1.533   1.598   1.561   1.666   1.538   1.477   1.434   1.437   1.291   1.290   1.236   1.196   1.230   1.163   1.231   1.425   1.505   1.526   1.489   1.621   1.700   1.566
   235.50    1.607   1.687   1.676   1.632   1.784   1.826   1.778   1.706   1.405   1.322   1.357   1.158   1.263   1.288   1.278   1.198   1.196   1.285   1.438   1.592   1.562   1.503   1.448   1.493   1.539
   223.10    1.679   1.821   1.835   1.772   1.602   1.851   1.881   1.868   1.617   1.531   1.406   1.353   1.359   1.294   1.245   1.219   1.315   1.530   1.555   1.477   1.394   1.388   1.356   1.398   1.417
   210.71    1.615   1.625   1.823   1.657   1.588   1.805   1.836   1.692   1.711   1.646   1.457   1.505   1.414   1.391   1.196   1.149   1.336   1.469   1.572   1.500   1.409   1.530   1.285   1.389   1.343
   198.31    1.651   1.689   1.691   1.821   1.763   1.792   1.743   1.722   1.707   1.581   1.517   1.401   1.325   1.364   1.256   1.126   1.256   1.290   1.465   1.477   1.401   1.447   1.445   1.441   1.561
   185.92    1.606   1.725   1.649   1.581   1.588   1.660   1.625   1.608   1.511   1.586   1.543   1.416   1.378   1.333   1.173   1.203   1.204   1.288   1.325   1.526   1.448   1.594   1.505   1.469   1.544
   173.52    1.767   1.740   1.699   1.633   1.607   1.798   1.700   1.563   1.583   1.614   1.657   1.543   1.331   1.208   1.123   1.239   1.186   1.238   1.362   1.375   1.435   1.569   1.499   1.430   1.430
   161.13    1.785   1.802   1.596   1.623   1.724   1.878   1.720   1.670   1.671   1.512   1.544   1.459   1.530   1.388   1.206   1.243   1.294   1.275   1.378   1.305   1.418   1.574   1.533   1.479   1.296
   148.73    1.605   1.548   1.451   1.526   1.616   1.759   1.862   1.689   1.701   1.626   1.438   1.557   1.597   1.331   1.314   1.417   1.320   1.263   1.254   1.360   1.425   1.502   1.512   1.544   1.443
   136.34    1.539   1.534   1.701   1.606   1.571   1.659   1.739   1.652   1.647   1.605   1.349   1.451   1.487   1.452   1.513   1.493   1.348   1.271   1.242   1.385   1.527   1.499   1.510   1.499   1.479
   123.95    1.637   1.582   1.594   1.580   1.748   1.895   1.722   1.627   1.555   1.486   1.560   1.595   1.452   1.459   1.538   1.449   1.473   1.506   1.450   1.407   1.664   1.505   1.490   1.511   1.420
   111.55    1.538   1.565   1.583   1.595   1.733   1.838   1.773   1.597   1.550   1.592   1.752   1.668   1.488   1.405   1.425   1.402   1.422   1.381   1.380   1.508   1.500   1.576   1.679   1.505   1.399
    99.16    1.554   1.553   1.651   1.666   1.762   1.835   1.747   1.632   1.637   1.650   1.721   1.592   1.542   1.487   1.318   1.435   1.395   1.306   1.392   1.412   1.512   1.627   1.564   1.480   1.531
    86.76    1.542   1.543   1.441   1.616   1.666   1.597   1.727   1.798   1.686   1.643   1.775   1.751   1.642   1.456   1.518   1.365   1.364   1.326   1.320   1.323   1.197   1.308   1.404   1.478   1.384
    74.37    1.370   1.368   1.565   1.566   1.405   1.572   1.691   1.733   1.712   1.635   1.602   1.540   1.527   1.484   1.451   1.360   1.325   1.325   1.331   1.330   1.151   1.212   1.263   1.370   1.396
    61.97    1.425   1.442   1.524   1.423   1.420   1.532   1.685   1.579   1.486   1.660   1.490   1.551   1.611   1.512   1.460   1.355   1.541   1.415   1.330   1.321   1.248   1.310   1.305   1.229   1.331
    49.58    1.576   1.485   1.314   1.556   1.518   1.491   1.634   1.517   1.486   1.563   1.710   1.687   1.608   1.546   1.447   1.601   1.546   1.426   1.451   1.299   1.322   1.338   1.409   1.325   1.362
    37.18    1.660   1.541   1.481   1.486   1.414   1.527   1.651   1.692   1.685   1.652   1.696   1.768   1.740   1.632   1.621   1.703   1.630   1.555   1.452   1.360   1.256   1.328   1.456   1.408   1.535
    24.79    1.512   1.718   1.607   1.535   1.510   1.682   1.609   1.651   1.665   1.623   1.627   1.716   1.706   1.605   1.633   1.537   1.544   1.516   1.419   1.326   1.303   1.373   1.424   1.414   1.536
    12.40    1.464   1.632   1.523   1.449   1.393   1.610   1.535   1.562   1.454   1.472   1.597   1.680   1.622   1.501   1.406   1.562   1.536   1.445   1.450   1.422   1.362   1.443   1.520   1.425   1.568
     0.00    1.527   1.505   1.366   1.257   1.282   1.291   1.467   1.528   1.634   1.546   1.645   1.519   1.469   1.459   1.453   1.381   1.326   1.455   1.538   1.515   1.490   1.396   1.450   1.324   1.449

   Height   Standard deviation at grid points for the v component:
   297.47    1.265   1.265   1.265   1.265   1.265   1.265   1.265   1.265   1.265   1.265   1.265   1.265   1.265   1.265   1.265   1.265   1.265   1.265   1.265   1.265   1.265   1.265   1.265   1.265   1.265
   285.07    1.265   1.265   1.265   1.265   1.265   1.265   1.265   1.265   1.265   1.265   1.265   1.265   1.265   1.265   1.265   1.265   1.265   1.265   1.265   1.265   1.265   1.265   1.265   1.265   1.265
   272.68    1.265   1.265   1.265   1.265   1.265   1.265   1.265   1.265   1.265   1.265   1.265   1.265   1.265   1.265   1.265   1.265   1.265   1.265   1.265   1.265   1.265   1.265   1.265   1.265   1.265
   260.29    1.265   1.265   1.265   1.265   1.265   1.265   1.265   1.265   1.265   1.265   1.265   1.265   1.265   1.265   1.265   1.265   1.265   1.265   1.265   1.265   1.265   1.265   1.265   1.265   1.265
   247.89    1.265   1.265   1.265   1.265   1.265   1.265   1.265   1.265   1.265   1.265   1.265   1.265   1.265   1.265   1.265   1.265   1.265   1.265   1.265   1.265   1.265   1.265   1.265   1.265   1.265
   235.50    1.265   1.265   1.265   1.265   1.265   1.265   1.265   1.265   1.265   1.265   1.265   1.265   1.265   1.265   1.265   1.265   1.265   1.265   1.265   1.265   1.265   1.265   1.265   1.265   1.265
   223.10    1.265   1.265   1.265   1.265   1.265   1.265   1.265   1.265   1.265   1.265   1.265   1.265   1.265   1.265   1.265   1.265   1.265   1.265   1.265   1.265   1.265   1.265   1.265   1.265   1.265
   210.71    1.265   1.265   1.265   1.265   1.265   1.265   1.265   1.265   1.265   1.265   1.265   1.265   1.265   1.265   1.265   1.265   1.265   1.265   1.265   1.265   1.265   1.265   1.265   1.265   1.265
   198.31    1.265   1.265   1.265   1.265   1.265   1.265   1.265   1.265   1.265   1.265   1.265   1.265   1.265   1.265   1.265   1.265   1.265   1.265   1.265   1.265   1.265   1.265   1.265   1.265   1.265
   185.92    1.265   1.265   1.265   1.265   1.265   1.265   1.265   1.265   1.265   1.265   1.265   1.265   1.265   1.265   1.265   1.265   1.265   1.265   1.265   1.265   1.265   1.265   1.265   1.265   1.265
   173.52    1.265   1.265   1.265   1.265   1.265   1.265   1.265   1.265   1.265   1.265   1.265   1.265   1.265   1.265   1.265   1.265   1.265   1.265   1.265   1.265   1.265   1.265   1.265   1.265   1.265
   161.13    1.265   1.265   1.265   1.265   1.265   1.265   1.265   1.265   1.265   1.265   1.265   1.265   1.265   1.265   1.265   1.265   1.265   1.265   1.265   1.265   1.265   1.265   1.265   1.265   1.265
   148.73    1.265   1.265   1.265   1.265   1.265   1.265   1.265   1.265   1.265   1.265   1.265   1.265   1.265   1.265   1.265   1.265   1.265   1.265   1.265   1.265   1.265   1.265   1.265   1.265   1.265
   136.34    1.265   1.265   1.265   1.265   1.265   1.265   1.265   1.265   1.265   1.265   1.265   1.265   1.265   1.265   1.265   1.265   1.265   1.265   1.265   1.265   1.265   1.265   1.265   1.265   1.265
   123.95    1.265   1.265   1.265   1.265   1.265   1.265   1.265   1.265   1.265   1.265   1.265   1.265   1.265   1.265   1.265   1.265   1.265   1.265   1.265   1.265   1.265   1.265   1.265   1.265   1.265
   111.55    1.265   1.265   1.265   1.265   1.265   1.265   1.265   1.265   1.265   1.265   1.265   1.265   1.265   1.265   1.265   1.265   1.265   1.265   1.265   1.265   1.265   1.265   1.265   1.265   1.265
    99.16    1.265   1.265   1.265   1.265   1.265   1.265   1.265   1.265   1.265   1.265   1.265   1.265   1.265   1.265   1.265   1.265   1.265   1.265   1.265   1.265   1.265   1.265   1.265   1.265   1.265
    86.76    1.265   1.265   1.265   1.265   1.265   1.265   1.265   1.265   1.265   1.265   1.265   1.265   1.265   1.265   1.265   1.265   1.265   1.265   1.265   1.265   1.265   1.265   1.265   1.265   1.265
    74.37    1.265   1.265   1.265   1.265   1.265   1.265   1.265   1.265   1.265   1.265   1.265   1.265   1.265   1.265   1.265   1.265   1.265   1.265   1.265   1.265   1.265   1.265   1.265   1.265   1.265
    61.97    1.265   1.265   1.265   1.265   1.265   1.265   1.265   1.265   1.265   1.265   1.265   1.265   1.265   1.265   1.265   1.265   1.265   1.265   1.265   1.265   1.265   1.265   1.265   1.265   1.265
    49.58    1.265   1.265   1.265   1.265   1.265   1.265   1.265   1.265   1.265   1.265   1.265   1.265   1.265   1.265   1.265   1.265   1.265   1.265   1.265   1.265   1.265   1.265   1.265   1.265   1.265
    37.18    1.265   1.265   1.265   1.265   1.265   1.265   1.265   1.265   1.265   1.265   1.265   1.265   1.265   1.265   1.265   1.265   1.265   1.265   1.265   1.265   1.265   1.265   1.265   1.265   1.265
    24.79    1.265   1.265   1.265   1.265   1.265   1.265   1.265   1.265   1.265   1.265   1.265   1.265   1.265   1.265   1.265   1.265   1.265   1.265   1.265   1.265   1.265   1.265   1.265   1.265   1.265
    12.40    1.265   1.265   1.265   1.265   1.265   1.265   1.265   1.265   1.265   1.265   1.265   1.265   1.265   1.265   1.265   1.265   1.265   1.265   1.265   1.265   1.265   1.265   1.265   1.265   1.265
     0.00    1.265   1.265   1.265   1.265   1.265   1.265   1.265   1.265   1.265   1.265   1.265   1.265   1.265   1.265   1.265   1.265   1.265   1.265   1.265   1.265   1.265   1.265   1.265   1.265   1.265

   Height   Standard deviation at grid points for the w component:
   297.47    0.796   0.796   0.796   0.796   0.796   0.796   0.796   0.796   0.796   0.796   0.796   0.796   0.796   0.796   0.796   0.796   0.796   0.796   0.796   0.796   0.796   0.796   0.796   0.796   0.796
   285.07    0.796   0.796   0.796   0.796   0.796   0.796   0.796   0.796   0.796   0.796   0.796   0.796   0.796   0.796   0.796   0.796   0.796   0.796   0.796   0.796   0.796   0.796   0.796   0.796   0.796
   272.68    0.796   0.796   0.796   0.796   0.796   0.796   0.796   0.796   0.796   0.796   0.796   0.796   0.796   0.796   0.796   0.796   0.796   0.796   0.796   0.796   0.796   0.796   0.796   0.796   0.796
   260.29    0.796   0.796   0.796   0.796   0.796   0.796   0.796   0.796   0.796   0.796   0.796   0.796   0.796   0.796   0.796   0.796   0.796   0.796   0.796   0.796   0.796   0.796   0.796   0.796   0.796
   247.89    0.796   0.796   0.796   0.796   0.796   0.796   0.796   0.796   0.796   0.796   0.796   0.796   0.796   0.796   0.796   0.796   0.796   0.796   0.796   0.796   0.796   0.796   0.796   0.796   0.796
   235.50    0.796   0.796   0.796   0.796   0.796   0.796   0.796   0.796   0.796   0.796   0.796   0.796   0.796   0.796   0.796   0.796   0.796   0.796   0.796   0.796   0.796   0.796   0.796   0.796   0.796
   223.10    0.796   0.796   0.796   0.796   0.796   0.796   0.796   0.796   0.796   0.796   0.796   0.796   0.796   0.796   0.796   0.796   0.796   0.796   0.796   0.796   0.796   0.796   0.796   0.796   0.796
   210.71    0.796   0.796   0.796   0.796   0.796   0.796   0.796   0.796   0.796   0.796   0.796   0.796   0.796   0.796   0.796   0.796   0.796   0.796   0.796   0.796   0.796   0.796   0.796   0.796   0.796
   198.31    0.796   0.796   0.796   0.796   0.796   0.796   0.796   0.796   0.796   0.796   0.796   0.796   0.796   0.796   0.796   0.796   0.796   0.796   0.796   0.796   0.796   0.796   0.796   0.796   0.796
   185.92    0.796   0.796   0.796   0.796   0.796   0.796   0.796   0.796   0.796   0.796   0.796   0.796   0.796   0.796   0.796   0.796   0.796   0.796   0.796   0.796   0.796   0.796   0.796   0.796   0.796
   173.52    0.796   0.796   0.796   0.796   0.796   0.796   0.796   0.796   0.796   0.796   0.796   0.796   0.796   0.796   0.796   0.796   0.796   0.796   0.796   0.796   0.796   0.796   0.796   0.796   0.796
   161.13    0.796   0.796   0.796   0.796   0.796   0.796   0.796   0.796   0.796   0.796   0.796   0.796   0.796   0.796   0.796   0.796   0.796   0.796   0.796   0.796   0.796   0.796   0.796   0.796   0.796
   148.73    0.796   0.796   0.796   0.796   0.796   0.796   0.796   0.796   0.796   0.796   0.796   0.796   0.796   0.796   0.796   0.796   0.796   0.796   0.796   0.796   0.796   0.796   0.796   0.796   0.796
   136.34    0.796   0.796   0.796   0.796   0.796   0.796   0.796   0.796   0.796   0.796   0.796   0.796   0.796   0.796   0.796   0.796   0.796   0.796   0.796   0.796   0.796   0.796   0.796   0.796   0.796
   123.95    0.796   0.796   0.796   0.796   0.796   0.796   0.796   0.796   0.796   0.796   0.796   0.796   0.796   0.796   0.796   0.796   0.796   0.796   0.796   0.796   0.796   0.796   0.796   0.796   0.796
   111.55    0.796   0.796   0.796   0.796   0.796   0.796   0.796   0.796   0.796   0.796   0.796   0.796   0.796   0.796   0.796   0.796   0.796   0.796   0.796   0.796   0.796   0.796   0.796   0.796   0.796
    99.16    0.796   0.796   0.796   0.796   0.796   0.796   0.796   0.796   0.796   0.796   0.796   0.796   0.796   0.796   0.796   0.796   0.796   0.796   0.796   0.796   0.796   0.796   0.796   0.796   0.796
    86.76    0.796   0.796   0.796   0.796   0.796   0.796   0.796   0.796   0.796   0.796   0.796   0.796   0.796   0.796   0.796   0.796   0.796   0.796   0.796   0.796   0.796   0.796   0.796   0.796   0.796
    74.37    0.796   0.796   0.796   0.796   0.796   0.796   0.796   0.796   0.796   0.796   0.796   0.796   0.796   0.796   0.796   0.796   0.796   0.796   0.796   0.796   0.796   0.796   0.796   0.796   0.796
    61.97    0.796   0.796   0.796   0.796   0.796   0.796   0.796   0.796   0.796   0.796   0.796   0.796   0.796   0.796   0.796   0.796   0.796   0.796   0.796   0.796   0.796   0.796   0.796   0.796   0.796
    49.58    0.796   0.796   0.796   0.796   0.796   0.796   0.796   0.796   0.796   0.796   0.796   0.796   0.796   0.796   0.796   0.796   0.796   0.796   0.796   0.796   0.796   0.796   0.796   0.796   0.796
    37.18    0.796   0.796   0.796   0.796   0.796   0.796   0.796   0.796   0.796   0.796   0.796   0.796   0.796   0.796   0.796   0.796   0.796   0.796   0.796   0.796   0.796   0.796   0.796   0.796   0.796
    24.79    0.796   0.796   0.796   0.796   0.796   0.796   0.796   0.796   0.796   0.796   0.796   0.796   0.796   0.796   0.796   0.796   0.796   0.796   0.796   0.796   0.796   0.796   0.796   0.796   0.796
    12.40    0.796   0.796   0.796   0.796   0.796   0.796   0.796   0.796   0.796   0.796   0.796   0.796   0.796   0.796   0.796   0.796   0.796   0.796   0.796   0.796   0.796   0.796   0.796   0.796   0.796
     0.00    0.796   0.796   0.796   0.796   0.796   0.796   0.796   0.796   0.796   0.796   0.796   0.796   0.796   0.796   0.796   0.796   0.796   0.796   0.796   0.796   0.796   0.796   0.796   0.796   0.796

   Mean standard deviation across all grid points:
      u component:    1.499 m/s
      v component:    1.265 m/s
      w component:    0.796 m/s


U-component (X) statistics from the interpolated hub point:

   Mean =   7.9919 m/s
   TI   =  19.9880 %


Processing complete.  1826.3 CPU seconds used.
