
This summary file was generated by TurbSim (from OpenFAST--128-NOTFOUND) on 23-Apr-2025 at 12:24:53.


Runtime Options:

 680233354  Random seed #1
    RANLUX  Type of random number generator
         F  Output binary HH turbulence parameters?
         F  Output formatted turbulence parameters?
         F  Output AeroDyn HH files?
         T  Output AeroDyn FF files?
         F  Output BLADED FF files?
         F  Output tower data?
         F  Output HAWC FF files?
         F  Output formatted FF files?
         F  Output coherent turbulence time step file?
 0 -  NONE  IEC turbulence models scaled to exact specified standard deviation


Turbine/Model Specifications:

        25  Vertical grid-point matrix dimension
        25  Horizontal grid-point matrix dimension
     0.050  Time step [seconds]
   700.000  Analysis time [seconds]
   700.000  Usable output time [seconds]
   148.735  Hub height [m]
   297.469  Grid height [m]
   297.469  Grid width [m]
     0.000  Vertical flow angle [degrees]
     0.000  Horizontal flow angle [degrees]


Meteorological Boundary Conditions:

    IECKAI  IEC Kaimal spectral model
         1  IEC standard: IEC 61400-1 Ed. 3: 2005
         B  IEC turbulence characteristic
       NTM  IEC Normal Turbulence Model
       N/A  IEC Extreme Turbulence Model (ETM) "c" parameter [m/s]
       PL   Wind profile type
   150.000  Reference height [m]
    14.000  Reference wind speed [m/s]
       N/A  Jet height [m]
     0.120  Power law exponent
     0.030  Surface roughness length [m]


Non-IEC Meteorological Boundary Conditions:

       N/A  Site latitude [degrees]
       N/A  Gradient Richardson number
       N/A  Friction or shear velocity [m/s]
       N/A  Mixing layer depth [m]
       N/A  Mean hub u'w' Reynolds stress
       N/A  Mean hub u'v' Reynolds stress
       N/A  Mean hub v'w' Reynolds stress


Spatial Coherence Models:

       IEC  u-component coherence model
      NONE  v-component coherence model
      NONE  w-component coherence model
(   12.000, 0.353E-03)  u-component coherence parameters
                   N/A  v-component coherence parameters
                   N/A  w-component coherence parameters
       N/A  Coherence exponent


You have requested that the following file(s) be generated:

   IEA_w_TMD_NTM_U14.000000_Seed680233354.0.bts (AeroDyn/TurbSim full-field wind file)


Turbulence Simulation Scaling Parameter Summary:

   Turbulence model used                            =  IEC Kaimal
   Turbulence characteristic                        =  B
   IEC turbulence type                              =  Normal Turbulence Model
   IEC standard                                     =  IEC 61400-1 Ed. 3: 2005
   Mean wind speed at hub height                    =   13.986 m/s
   Expected value of turbulence intensity at 15 m/s =   14.000%
   Characteristic value of standard deviation       =    2.253 m/s
   Turbulence scale                                 =   42.000 m
   u-component integral scale                       =  340.200 m
   Coherency scale                                  =  340.200 m
   Characteristic value of hub turbulence intensity =   16.106%
   Gradient Richardson number                       =    0.000

   Wind profile type                                =  Power law
   Power law exponent                               =    0.120
   Mean shear across rotor disk                     =    0.041 (m/s)/m
   Assumed rotor diameter                           =  297.469 m
   Surface roughness length                         =    0.030 m

   Nyquist frequency of turbulent wind field        =   10.000 Hz

   Number of time steps in the FFT                  =    14000
   Number of time steps output                      =    14000
   Number of points simulated                       =      625


Mean Flow Angles:

   Vertical   =   0.0 degrees
   Horizontal =   0.0 degrees

Mean Wind Speed Profile:

   Height    Wind Speed   Horizontal Angle  Vertical Angle  U-comp (X)   V-comp (Y)   W-comp (Z)
     (m)        (m/s)         (degrees)       (degrees)       (m/s)        (m/s)        (m/s)   
   ------    ----------   ----------------  --------------  ----------   ----------   ----------
    297.5       15.20            0.00            0.00         15.20         0.00         0.00
    285.1       15.12            0.00            0.00         15.12         0.00         0.00
    272.7       15.04            0.00            0.00         15.04         0.00         0.00
    260.3       14.96            0.00            0.00         14.96         0.00         0.00
    247.9       14.87            0.00            0.00         14.87         0.00         0.00
    235.5       14.78            0.00            0.00         14.78         0.00         0.00
    223.1       14.68            0.00            0.00         14.68         0.00         0.00
    210.7       14.58            0.00            0.00         14.58         0.00         0.00
    198.3       14.48            0.00            0.00         14.48         0.00         0.00
    185.9       14.37            0.00            0.00         14.37         0.00         0.00
    173.5       14.25            0.00            0.00         14.25         0.00         0.00
    161.1       14.12            0.00            0.00         14.12         0.00         0.00
    148.7       13.99            0.00            0.00         13.99         0.00         0.00
    136.3       13.84            0.00            0.00         13.84         0.00         0.00
    123.9       13.68            0.00            0.00         13.68         0.00         0.00
    111.6       13.51            0.00            0.00         13.51         0.00         0.00
     99.2       13.32            0.00            0.00         13.32         0.00         0.00
     86.8       13.11            0.00            0.00         13.11         0.00         0.00
     74.4       12.87            0.00            0.00         12.87         0.00         0.00
     62.0       12.59            0.00            0.00         12.59         0.00         0.00
     49.6       12.26            0.00            0.00         12.26         0.00         0.00
     37.2       11.84            0.00            0.00         11.84         0.00         0.00
     24.8       11.28            0.00            0.00         11.28         0.00         0.00
     12.4       10.38            0.00            0.00         10.38         0.00         0.00
      0.0        3.07            0.00            0.00          3.07         0.00         0.00


Harvested Random Seeds after Generation of the Random Numbers:

    121953125 K 1
            0 K 2


Hub-Height Simulated Turbulence Statistical Summary:

   Type of Wind        Min (m/s)   Mean (m/s)    Max (m/s)  Sigma (m/s)       TI (%)
   ----------------    ---------   ----------    ---------  -----------       ------
   Longitudinal (u)         7.30        13.99        21.10        2.132       15.246
   Lateral (v)             -5.88        -0.00         6.62        1.767       12.632
   Vertical (w)            -4.02        -0.00         4.14        1.100        7.862
   U component              7.30        13.99        21.10        2.132       15.246
   V component             -5.88        -0.00         6.62        1.767       12.632
   W component             -4.02        -0.00         4.14        1.100        7.862
   Horizontal (U&V)         7.50        14.10        21.30        2.127       15.085
   Total                    7.60        14.14        21.38        2.120       14.989

                       Min Reynolds     Mean Reynolds    Max Reynolds    Correlation
   Product             Stress (m/s)^2   Stress (m/s)^2   Stress (m/s)^2  Coefficient
   ----------------    --------------   --------------   --------------  -----------
   u'w'                    -15.808            -0.058            16.354        -0.025
   u'v'                    -22.515            -0.173            19.113        -0.046
   v'w'                    -10.578             0.104            11.866         0.054


   Friction Velocity (Ustar)  =      0.240 m/s
   Maximum Instantaneous TKE  =     31.262 (m/s)^2
   Maximum Instantaneous CTKE =     12.589 (m/s)^2


Grid Point Variance Summary:

   Y-coord -148.73 -136.34 -123.95 -111.55  -99.16  -86.76  -74.37  -61.97  -49.58  -37.18  -24.79  -12.39    0.00   12.39   24.79   37.18   49.58   61.97   74.37   86.76   99.16  111.55  123.95  136.34  148.73

   Height   Standard deviation at grid points for the u component:
   297.47    2.317   2.448   2.343   2.225   2.134   2.210   2.077   2.144   2.389   2.288   2.197   2.191   2.335   2.240   2.131   1.963   1.930   1.813   1.817   1.915   1.984   1.964   1.918   1.920   1.935
   285.07    2.365   2.346   2.199   2.158   2.202   2.125   2.128   2.304   2.272   2.034   2.168   2.107   2.179   2.237   2.055   2.070   2.031   1.989   2.041   2.108   2.135   1.934   2.006   2.100   2.063
   272.68    2.295   2.206   2.080   1.998   2.140   2.058   2.233   2.315   2.261   2.144   2.126   2.195   2.191   2.187   2.065   1.959   1.901   2.054   2.089   2.107   2.165   2.220   2.142   2.167   2.025
   260.29    2.128   2.128   1.981   1.913   1.913   2.032   2.195   2.356   2.301   2.176   2.131   2.061   1.996   2.100   2.062   2.078   2.058   2.139   2.116   2.110   2.295   2.318   2.176   2.138   2.136
   247.89    2.064   2.060   1.913   1.899   1.804   2.070   2.145   2.287   2.169   2.114   2.155   1.960   1.935   2.181   2.230   2.170   2.161   2.143   2.089   2.254   2.269   2.334   2.162   2.098   2.203
   235.50    2.116   2.023   2.002   1.961   1.992   1.972   2.168   2.124   2.258   1.967   1.903   1.888   1.991   2.212   2.265   2.251   2.324   2.221   2.159   2.200   2.237   2.257   2.276   2.265   2.243
   223.10    1.911   2.057   2.101   1.919   1.937   1.835   2.030   2.107   2.125   2.058   1.889   1.816   2.142   2.315   2.248   2.367   2.207   2.166   1.988   2.016   2.054   2.256   2.298   2.371   2.398
   210.71    1.947   2.133   2.072   1.962   1.933   1.969   2.046   2.121   1.987   2.015   2.029   1.859   2.138   2.263   2.243   2.231   2.096   2.223   2.096   2.095   2.242   2.382   2.266   2.329   2.489
   198.31    2.060   2.158   2.026   2.042   2.044   2.084   1.966   1.975   1.938   1.959   1.916   2.017   2.060   2.107   2.088   2.007   2.245   2.207   2.149   2.289   2.229   2.466   2.417   2.353   2.294
   185.92    2.146   1.959   1.917   2.049   2.023   2.121   2.051   1.893   1.896   1.918   2.011   2.042   2.023   2.127   2.108   1.966   2.127   2.214   2.322   2.132   2.366   2.375   2.377   2.343   2.363
   173.52    2.142   2.110   2.205   2.096   2.117   2.092   1.857   1.936   1.818   1.902   2.036   2.105   2.115   2.122   1.958   2.046   2.152   2.177   2.190   2.296   2.327   2.342   2.295   2.355   2.492
   161.13    2.161   1.937   2.153   2.168   2.026   1.956   1.873   1.828   1.783   1.974   1.983   2.178   2.238   2.176   1.969   1.956   1.956   2.123   2.165   2.019   2.210   2.309   2.412   2.397   2.359
   148.73    2.221   2.019   2.077   2.009   2.047   1.811   1.827   1.768   1.920   1.884   2.006   2.032   2.132   1.894   1.878   1.889   1.878   1.977   1.939   1.911   2.059   2.110   2.091   2.342   2.228
   136.34    2.028   2.101   1.902   1.945   1.891   1.902   1.835   1.834   1.901   2.074   2.040   2.036   2.109   2.085   2.023   2.025   1.927   1.950   1.842   1.847   1.979   2.172   2.249   2.292   2.298
   123.95    2.069   2.002   2.045   1.964   2.020   1.929   1.751   1.835   2.038   1.994   2.064   1.988   2.059   2.172   2.121   2.111   2.003   1.883   1.888   1.940   1.907   2.041   2.121   2.190   2.192
   111.55    2.117   2.083   1.923   2.038   2.107   1.959   1.843   1.859   1.946   1.928   2.024   1.973   2.140   2.300   2.184   2.045   2.050   1.876   1.984   1.816   1.839   2.038   1.991   2.060   2.101
    99.16    2.052   2.061   2.075   2.133   2.147   2.037   2.042   1.840   1.911   2.071   2.108   2.106   2.201   2.121   2.209   1.984   2.026   2.089   2.213   1.971   1.875   1.939   2.121   2.037   2.078
    86.76    2.148   2.113   2.123   2.183   2.085   2.158   2.040   1.967   1.976   2.124   2.027   2.112   2.123   2.022   2.002   2.031   2.060   2.165   2.097   2.132   2.054   1.878   2.062   2.090   1.973
    74.37    2.183   1.980   2.154   2.099   2.028   2.118   2.169   2.072   2.118   2.108   2.162   2.218   2.001   2.011   2.155   2.237   2.176   2.244   2.211   1.991   1.945   1.845   1.997   1.871   1.981
    61.97    2.318   2.200   2.086   2.103   2.032   1.990   2.066   2.181   2.246   2.309   2.122   2.179   2.046   2.048   2.100   2.095   2.182   2.195   2.098   2.110   1.969   1.951   1.850   1.926   2.032
    49.58    2.359   2.310   2.130   2.025   1.964   1.982   2.098   2.040   2.008   2.130   2.043   2.069   2.141   2.166   2.093   2.027   2.123   2.211   2.131   1.994   2.054   2.061   1.928   1.831   1.937
    37.18    2.310   2.264   2.137   2.109   2.182   2.042   2.064   2.173   2.045   2.099   2.010   2.147   2.135   2.145   2.156   2.142   2.139   2.228   2.139   2.084   2.084   2.042   1.883   1.769   1.885
    24.79    2.241   2.194   2.097   2.175   2.137   1.935   2.056   2.044   2.007   1.984   2.057   2.120   2.172   2.166   1.980   2.129   2.173   2.163   2.162   2.191   2.180   1.868   1.915   1.791   1.781
    12.40    2.118   2.169   2.142   2.138   2.043   2.040   2.113   2.174   2.049   1.985   2.041   2.139   2.051   2.099   2.095   2.135   2.032   2.024   1.965   1.990   2.096   1.969   1.841   1.781   1.853
     0.00    2.168   2.228   2.313   2.092   1.938   2.118   2.171   2.112   2.155   2.111   1.974   2.165   2.144   2.190   2.164   1.865   1.802   1.833   1.790   1.932   1.761   1.824   1.758   1.782   1.906

   Height   Standard deviation at grid points for the v component:
   297.47    1.767   1.767   1.767   1.767   1.767   1.767   1.767   1.767   1.767   1.767   1.767   1.767   1.767   1.767   1.767   1.767   1.767   1.767   1.767   1.767   1.767   1.767   1.767   1.767   1.767
   285.07    1.767   1.767   1.767   1.767   1.767   1.767   1.767   1.767   1.767   1.767   1.767   1.767   1.767   1.767   1.767   1.767   1.767   1.767   1.767   1.767   1.767   1.767   1.767   1.767   1.767
   272.68    1.767   1.767   1.767   1.767   1.767   1.767   1.767   1.767   1.767   1.767   1.767   1.767   1.767   1.767   1.767   1.767   1.767   1.767   1.767   1.767   1.767   1.767   1.767   1.767   1.767
   260.29    1.767   1.767   1.767   1.767   1.767   1.767   1.767   1.767   1.767   1.767   1.767   1.767   1.767   1.767   1.767   1.767   1.767   1.767   1.767   1.767   1.767   1.767   1.767   1.767   1.767
   247.89    1.767   1.767   1.767   1.767   1.767   1.767   1.767   1.767   1.767   1.767   1.767   1.767   1.767   1.767   1.767   1.767   1.767   1.767   1.767   1.767   1.767   1.767   1.767   1.767   1.767
   235.50    1.767   1.767   1.767   1.767   1.767   1.767   1.767   1.767   1.767   1.767   1.767   1.767   1.767   1.767   1.767   1.767   1.767   1.767   1.767   1.767   1.767   1.767   1.767   1.767   1.767
   223.10    1.767   1.767   1.767   1.767   1.767   1.767   1.767   1.767   1.767   1.767   1.767   1.767   1.767   1.767   1.767   1.767   1.767   1.767   1.767   1.767   1.767   1.767   1.767   1.767   1.767
   210.71    1.767   1.767   1.767   1.767   1.767   1.767   1.767   1.767   1.767   1.767   1.767   1.767   1.767   1.767   1.767   1.767   1.767   1.767   1.767   1.767   1.767   1.767   1.767   1.767   1.767
   198.31    1.767   1.767   1.767   1.767   1.767   1.767   1.767   1.767   1.767   1.767   1.767   1.767   1.767   1.767   1.767   1.767   1.767   1.767   1.767   1.767   1.767   1.767   1.767   1.767   1.767
   185.92    1.767   1.767   1.767   1.767   1.767   1.767   1.767   1.767   1.767   1.767   1.767   1.767   1.767   1.767   1.767   1.767   1.767   1.767   1.767   1.767   1.767   1.767   1.767   1.767   1.767
   173.52    1.767   1.767   1.767   1.767   1.767   1.767   1.767   1.767   1.767   1.767   1.767   1.767   1.767   1.767   1.767   1.767   1.767   1.767   1.767   1.767   1.767   1.767   1.767   1.767   1.767
   161.13    1.767   1.767   1.767   1.767   1.767   1.767   1.767   1.767   1.767   1.767   1.767   1.767   1.767   1.767   1.767   1.767   1.767   1.767   1.767   1.767   1.767   1.767   1.767   1.767   1.767
   148.73    1.767   1.767   1.767   1.767   1.767   1.767   1.767   1.767   1.767   1.767   1.767   1.767   1.767   1.767   1.767   1.767   1.767   1.767   1.767   1.767   1.767   1.767   1.767   1.767   1.767
   136.34    1.767   1.767   1.767   1.767   1.767   1.767   1.767   1.767   1.767   1.767   1.767   1.767   1.767   1.767   1.767   1.767   1.767   1.767   1.767   1.767   1.767   1.767   1.767   1.767   1.767
   123.95    1.767   1.767   1.767   1.767   1.767   1.767   1.767   1.767   1.767   1.767   1.767   1.767   1.767   1.767   1.767   1.767   1.767   1.767   1.767   1.767   1.767   1.767   1.767   1.767   1.767
   111.55    1.767   1.767   1.767   1.767   1.767   1.767   1.767   1.767   1.767   1.767   1.767   1.767   1.767   1.767   1.767   1.767   1.767   1.767   1.767   1.767   1.767   1.767   1.767   1.767   1.767
    99.16    1.767   1.767   1.767   1.767   1.767   1.767   1.767   1.767   1.767   1.767   1.767   1.767   1.767   1.767   1.767   1.767   1.767   1.767   1.767   1.767   1.767   1.767   1.767   1.767   1.767
    86.76    1.767   1.767   1.767   1.767   1.767   1.767   1.767   1.767   1.767   1.767   1.767   1.767   1.767   1.767   1.767   1.767   1.767   1.767   1.767   1.767   1.767   1.767   1.767   1.767   1.767
    74.37    1.767   1.767   1.767   1.767   1.767   1.767   1.767   1.767   1.767   1.767   1.767   1.767   1.767   1.767   1.767   1.767   1.767   1.767   1.767   1.767   1.767   1.767   1.767   1.767   1.767
    61.97    1.767   1.767   1.767   1.767   1.767   1.767   1.767   1.767   1.767   1.767   1.767   1.767   1.767   1.767   1.767   1.767   1.767   1.767   1.767   1.767   1.767   1.767   1.767   1.767   1.767
    49.58    1.767   1.767   1.767   1.767   1.767   1.767   1.767   1.767   1.767   1.767   1.767   1.767   1.767   1.767   1.767   1.767   1.767   1.767   1.767   1.767   1.767   1.767   1.767   1.767   1.767
    37.18    1.767   1.767   1.767   1.767   1.767   1.767   1.767   1.767   1.767   1.767   1.767   1.767   1.767   1.767   1.767   1.767   1.767   1.767   1.767   1.767   1.767   1.767   1.767   1.767   1.767
    24.79    1.767   1.767   1.767   1.767   1.767   1.767   1.767   1.767   1.767   1.767   1.767   1.767   1.767   1.767   1.767   1.767   1.767   1.767   1.767   1.767   1.767   1.767   1.767   1.767   1.767
    12.40    1.767   1.767   1.767   1.767   1.767   1.767   1.767   1.767   1.767   1.767   1.767   1.767   1.767   1.767   1.767   1.767   1.767   1.767   1.767   1.767   1.767   1.767   1.767   1.767   1.767
     0.00    1.767   1.767   1.767   1.767   1.767   1.767   1.767   1.767   1.767   1.767   1.767   1.767   1.767   1.767   1.767   1.767   1.767   1.767   1.767   1.767   1.767   1.767   1.767   1.767   1.767

   Height   Standard deviation at grid points for the w component:
   297.47    1.100   1.100   1.100   1.100   1.100   1.100   1.100   1.100   1.100   1.100   1.100   1.100   1.100   1.100   1.100   1.100   1.100   1.100   1.100   1.100   1.100   1.100   1.100   1.100   1.100
   285.07    1.100   1.100   1.100   1.100   1.100   1.100   1.100   1.100   1.100   1.100   1.100   1.100   1.100   1.100   1.100   1.100   1.100   1.100   1.100   1.100   1.100   1.100   1.100   1.100   1.100
   272.68    1.100   1.100   1.100   1.100   1.100   1.100   1.100   1.100   1.100   1.100   1.100   1.100   1.100   1.100   1.100   1.100   1.100   1.100   1.100   1.100   1.100   1.100   1.100   1.100   1.100
   260.29    1.100   1.100   1.100   1.100   1.100   1.100   1.100   1.100   1.100   1.100   1.100   1.100   1.100   1.100   1.100   1.100   1.100   1.100   1.100   1.100   1.100   1.100   1.100   1.100   1.100
   247.89    1.100   1.100   1.100   1.100   1.100   1.100   1.100   1.100   1.100   1.100   1.100   1.100   1.100   1.100   1.100   1.100   1.100   1.100   1.100   1.100   1.100   1.100   1.100   1.100   1.100
   235.50    1.100   1.100   1.100   1.100   1.100   1.100   1.100   1.100   1.100   1.100   1.100   1.100   1.100   1.100   1.100   1.100   1.100   1.100   1.100   1.100   1.100   1.100   1.100   1.100   1.100
   223.10    1.100   1.100   1.100   1.100   1.100   1.100   1.100   1.100   1.100   1.100   1.100   1.100   1.100   1.100   1.100   1.100   1.100   1.100   1.100   1.100   1.100   1.100   1.100   1.100   1.100
   210.71    1.100   1.100   1.100   1.100   1.100   1.100   1.100   1.100   1.100   1.100   1.100   1.100   1.100   1.100   1.100   1.100   1.100   1.100   1.100   1.100   1.100   1.100   1.100   1.100   1.100
   198.31    1.100   1.100   1.100   1.100   1.100   1.100   1.100   1.100   1.100   1.100   1.100   1.100   1.100   1.100   1.100   1.100   1.100   1.100   1.100   1.100   1.100   1.100   1.100   1.100   1.100
   185.92    1.100   1.100   1.100   1.100   1.100   1.100   1.100   1.100   1.100   1.100   1.100   1.100   1.100   1.100   1.100   1.100   1.100   1.100   1.100   1.100   1.100   1.100   1.100   1.100   1.100
   173.52    1.100   1.100   1.100   1.100   1.100   1.100   1.100   1.100   1.100   1.100   1.100   1.100   1.100   1.100   1.100   1.100   1.100   1.100   1.100   1.100   1.100   1.100   1.100   1.100   1.100
   161.13    1.100   1.100   1.100   1.100   1.100   1.100   1.100   1.100   1.100   1.100   1.100   1.100   1.100   1.100   1.100   1.100   1.100   1.100   1.100   1.100   1.100   1.100   1.100   1.100   1.100
   148.73    1.100   1.100   1.100   1.100   1.100   1.100   1.100   1.100   1.100   1.100   1.100   1.100   1.100   1.100   1.100   1.100   1.100   1.100   1.100   1.100   1.100   1.100   1.100   1.100   1.100
   136.34    1.100   1.100   1.100   1.100   1.100   1.100   1.100   1.100   1.100   1.100   1.100   1.100   1.100   1.100   1.100   1.100   1.100   1.100   1.100   1.100   1.100   1.100   1.100   1.100   1.100
   123.95    1.100   1.100   1.100   1.100   1.100   1.100   1.100   1.100   1.100   1.100   1.100   1.100   1.100   1.100   1.100   1.100   1.100   1.100   1.100   1.100   1.100   1.100   1.100   1.100   1.100
   111.55    1.100   1.100   1.100   1.100   1.100   1.100   1.100   1.100   1.100   1.100   1.100   1.100   1.100   1.100   1.100   1.100   1.100   1.100   1.100   1.100   1.100   1.100   1.100   1.100   1.100
    99.16    1.100   1.100   1.100   1.100   1.100   1.100   1.100   1.100   1.100   1.100   1.100   1.100   1.100   1.100   1.100   1.100   1.100   1.100   1.100   1.100   1.100   1.100   1.100   1.100   1.100
    86.76    1.100   1.100   1.100   1.100   1.100   1.100   1.100   1.100   1.100   1.100   1.100   1.100   1.100   1.100   1.100   1.100   1.100   1.100   1.100   1.100   1.100   1.100   1.100   1.100   1.100
    74.37    1.100   1.100   1.100   1.100   1.100   1.100   1.100   1.100   1.100   1.100   1.100   1.100   1.100   1.100   1.100   1.100   1.100   1.100   1.100   1.100   1.100   1.100   1.100   1.100   1.100
    61.97    1.100   1.100   1.100   1.100   1.100   1.100   1.100   1.100   1.100   1.100   1.100   1.100   1.100   1.100   1.100   1.100   1.100   1.100   1.100   1.100   1.100   1.100   1.100   1.100   1.100
    49.58    1.100   1.100   1.100   1.100   1.100   1.100   1.100   1.100   1.100   1.100   1.100   1.100   1.100   1.100   1.100   1.100   1.100   1.100   1.100   1.100   1.100   1.100   1.100   1.100   1.100
    37.18    1.100   1.100   1.100   1.100   1.100   1.100   1.100   1.100   1.100   1.100   1.100   1.100   1.100   1.100   1.100   1.100   1.100   1.100   1.100   1.100   1.100   1.100   1.100   1.100   1.100
    24.79    1.100   1.100   1.100   1.100   1.100   1.100   1.100   1.100   1.100   1.100   1.100   1.100   1.100   1.100   1.100   1.100   1.100   1.100   1.100   1.100   1.100   1.100   1.100   1.100   1.100
    12.40    1.100   1.100   1.100   1.100   1.100   1.100   1.100   1.100   1.100   1.100   1.100   1.100   1.100   1.100   1.100   1.100   1.100   1.100   1.100   1.100   1.100   1.100   1.100   1.100   1.100
     0.00    1.100   1.100   1.100   1.100   1.100   1.100   1.100   1.100   1.100   1.100   1.100   1.100   1.100   1.100   1.100   1.100   1.100   1.100   1.100   1.100   1.100   1.100   1.100   1.100   1.100

   Mean standard deviation across all grid points:
      u component:    2.083 m/s
      v component:    1.767 m/s
      w component:    1.100 m/s


U-component (X) statistics from the interpolated hub point:

   Mean =  13.9858 m/s
   TI   =  15.2465 %


Processing complete.  1360.3 CPU seconds used.
