
This summary file was generated by TurbSim (from OpenFAST-v4.0.3) on 18-Apr-2025 at 16:02:56.


Runtime Options:

1501552846  Random seed #1
    RANLUX  Type of random number generator
         F  Output binary HH turbulence parameters?
         F  Output formatted turbulence parameters?
         F  Output AeroDyn HH files?
         T  Output AeroDyn FF files?
         F  Output BLADED FF files?
         F  Output tower data?
         F  Output HAWC FF files?
         F  Output formatted FF files?
         F  Output coherent turbulence time step file?
 0 -  NONE  IEC turbulence models scaled to exact specified standard deviation


Turbine/Model Specifications:

        25  Vertical grid-point matrix dimension
        25  Horizontal grid-point matrix dimension
     0.050  Time step [seconds]
   700.000  Analysis time [seconds]
   700.000  Usable output time [seconds]
   150.000  Hub height [m]
   299.999  Grid height [m]
   299.999  Grid width [m]
     0.000  Vertical flow angle [degrees]
     0.000  Horizontal flow angle [degrees]


Meteorological Boundary Conditions:

    IECKAI  IEC Kaimal spectral model
         1  IEC standard: IEC 61400-1 Ed. 3: 2005
         B  IEC turbulence characteristic
       NTM  IEC Normal Turbulence Model
       N/A  IEC Extreme Turbulence Model (ETM) "c" parameter [m/s]
       PL   Wind profile type
   150.000  Reference height [m]
    16.000  Reference wind speed [m/s]
       N/A  Jet height [m]
     0.120  Power law exponent
     0.030  Surface roughness length [m]


Non-IEC Meteorological Boundary Conditions:

       N/A  Site latitude [degrees]
       N/A  Gradient Richardson number
       N/A  Friction or shear velocity [m/s]
       N/A  Mixing layer depth [m]
       N/A  Mean hub u'w' Reynolds stress
       N/A  Mean hub u'v' Reynolds stress
       N/A  Mean hub v'w' Reynolds stress


Spatial Coherence Models:

       IEC  u-component coherence model
      NONE  v-component coherence model
      NONE  w-component coherence model
(   12.000, 0.353E-03)  u-component coherence parameters
                   N/A  v-component coherence parameters
                   N/A  w-component coherence parameters
       N/A  Coherence exponent


You have requested that the following file(s) be generated:

   weis_job_NTM_U16.000000_Seed1501552846.0.bts (AeroDyn/TurbSim full-field wind file)


Turbulence Simulation Scaling Parameter Summary:

   Turbulence model used                            =  IEC Kaimal
   Turbulence characteristic                        =  B
   IEC turbulence type                              =  Normal Turbulence Model
   IEC standard                                     =  IEC 61400-1 Ed. 3: 2005
   Mean wind speed at hub height                    =   16.000 m/s
   Expected value of turbulence intensity at 15 m/s =   14.000%
   Characteristic value of standard deviation       =    2.464 m/s
   Turbulence scale                                 =   42.000 m
   u-component integral scale                       =  340.200 m
   Coherency scale                                  =  340.200 m
   Characteristic value of hub turbulence intensity =   15.400%
   Gradient Richardson number                       =    0.000

   Wind profile type                                =  Power law
   Power law exponent                               =    0.120
   Mean shear across rotor disk                     =    0.046 (m/s)/m
   Assumed rotor diameter                           =  299.999 m
   Surface roughness length                         =    0.030 m

   Nyquist frequency of turbulent wind field        =   10.000 Hz

   Number of time steps in the FFT                  =    14000
   Number of time steps output                      =    14000
   Number of points simulated                       =      625


Mean Flow Angles:

   Vertical   =   0.0 degrees
   Horizontal =   0.0 degrees

Mean Wind Speed Profile:

   Height    Wind Speed   Horizontal Angle  Vertical Angle  U-comp (X)   V-comp (Y)   W-comp (Z)
     (m)        (m/s)         (degrees)       (degrees)       (m/s)        (m/s)        (m/s)   
   ------    ----------   ----------------  --------------  ----------   ----------   ----------
    300.0       17.39            0.00            0.00         17.39         0.00         0.00
    287.5       17.30            0.00            0.00         17.30         0.00         0.00
    275.0       17.21            0.00            0.00         17.21         0.00         0.00
    262.5       17.11            0.00            0.00         17.11         0.00         0.00
    250.0       17.01            0.00            0.00         17.01         0.00         0.00
    237.5       16.91            0.00            0.00         16.91         0.00         0.00
    225.0       16.80            0.00            0.00         16.80         0.00         0.00
    212.5       16.68            0.00            0.00         16.68         0.00         0.00
    200.0       16.56            0.00            0.00         16.56         0.00         0.00
    187.5       16.43            0.00            0.00         16.43         0.00         0.00
    175.0       16.30            0.00            0.00         16.30         0.00         0.00
    162.5       16.15            0.00            0.00         16.15         0.00         0.00
    150.0       16.00            0.00            0.00         16.00         0.00         0.00
    137.5       15.83            0.00            0.00         15.83         0.00         0.00
    125.0       15.65            0.00            0.00         15.65         0.00         0.00
    112.5       15.46            0.00            0.00         15.46         0.00         0.00
    100.0       15.24            0.00            0.00         15.24         0.00         0.00
     87.5       15.00            0.00            0.00         15.00         0.00         0.00
     75.0       14.72            0.00            0.00         14.72         0.00         0.00
     62.5       14.40            0.00            0.00         14.40         0.00         0.00
     50.0       14.02            0.00            0.00         14.02         0.00         0.00
     37.5       13.55            0.00            0.00         13.55         0.00         0.00
     25.0       12.90            0.00            0.00         12.90         0.00         0.00
     12.5       11.87            0.00            0.00         11.87         0.00         0.00
      0.0        3.54            0.00            0.00          3.54         0.00         0.00


Harvested Random Seeds after Generation of the Random Numbers:

    121953125 K 1
            0 K 2


Hub-Height Simulated Turbulence Statistical Summary:

   Type of Wind        Min (m/s)   Mean (m/s)    Max (m/s)  Sigma (m/s)       TI (%)
   ----------------    ---------   ----------    ---------  -----------       ------
   Longitudinal (u)         7.14        16.00        24.43        2.406       15.040
   Lateral (v)             -5.96         0.00         8.01        1.934       12.086
   Vertical (w)            -4.29        -0.00         4.67        1.201        7.506
   U component              7.14        16.00        24.43        2.406       15.040
   V component             -5.96         0.00         8.01        1.934       12.086
   W component             -4.29        -0.00         4.67        1.201        7.506
   Horizontal (U&V)         7.41        16.12        24.53        2.379       14.759
   Total                    7.42        16.17        24.57        2.374       14.688

                       Min Reynolds     Mean Reynolds    Max Reynolds    Correlation
   Product             Stress (m/s)^2   Stress (m/s)^2   Stress (m/s)^2  Coefficient
   ----------------    --------------   --------------   --------------  -----------
   u'w'                    -14.872             0.026            25.456         0.009
   u'v'                    -46.083            -0.123            27.465        -0.026
   v'w'                    -24.574             0.001            13.619         0.000


   Friction Velocity (Ustar)  =      0.161 m/s
   Maximum Instantaneous TKE  =     47.450 (m/s)^2
   Maximum Instantaneous CTKE =     24.365 (m/s)^2


Grid Point Variance Summary:

   Y-coord -150.00 -137.50 -125.00 -112.50 -100.00  -87.50  -75.00  -62.50  -50.00  -37.50  -25.00  -12.50    0.00   12.50   25.00   37.50   50.00   62.50   75.00   87.50  100.00  112.50  125.00  137.50  150.00

   Height   Standard deviation at grid points for the u component:
   300.00    2.281   2.301   2.427   2.380   2.375   2.228   2.225   2.215   2.218   2.316   2.146   2.313   2.219   2.374   2.410   2.409   2.201   2.188   2.205   2.159   2.152   2.107   2.122   2.340   2.401
   287.50    2.256   2.340   2.261   2.343   2.309   2.221   2.351   2.253   2.060   2.215   2.221   2.344   2.284   2.406   2.339   2.249   2.261   2.315   2.189   2.321   2.286   2.232   2.240   2.437   2.531
   275.00    2.343   2.479   2.376   2.269   2.288   2.220   2.334   2.400   2.382   2.204   2.311   2.281   2.279   2.289   2.400   2.207   2.144   2.303   2.339   2.404   2.415   2.336   2.273   2.525   2.728
   262.50    2.249   2.295   2.292   2.155   2.311   2.257   2.204   2.413   2.127   2.129   2.203   2.060   2.167   2.086   2.138   2.043   2.108   2.250   2.355   2.321   2.378   2.430   2.451   2.501   2.550
   250.00    2.253   2.243   2.231   2.300   2.415   2.358   2.473   2.315   2.333   2.293   2.240   2.037   2.060   2.033   2.030   2.101   1.983   2.056   2.218   2.331   2.403   2.342   2.508   2.541   2.384
   237.50    2.386   2.442   2.397   2.380   2.589   2.630   2.568   2.519   2.248   2.074   2.125   1.931   2.033   2.083   2.096   2.048   2.009   2.120   2.244   2.442   2.443   2.393   2.325   2.328   2.353
   225.00    2.391   2.591   2.589   2.543   2.397   2.668   2.714   2.679   2.445   2.332   2.178   2.093   2.162   2.116   2.043   1.994   2.137   2.339   2.364   2.315   2.261   2.284   2.268   2.267   2.260
   212.50    2.372   2.364   2.637   2.458   2.419   2.647   2.654   2.488   2.500   2.407   2.197   2.267   2.212   2.166   1.980   1.925   2.128   2.256   2.424   2.416   2.320   2.423   2.135   2.265   2.172
   200.00    2.413   2.415   2.487   2.620   2.580   2.602   2.536   2.511   2.499   2.299   2.263   2.238   2.129   2.119   2.024   1.938   2.088   2.055   2.323   2.353   2.289   2.299   2.334   2.244   2.373
   187.50    2.354   2.496   2.490   2.351   2.352   2.503   2.448   2.382   2.241   2.332   2.327   2.247   2.222   2.132   1.978   2.036   2.058   2.070   2.134   2.392   2.333   2.464   2.373   2.314   2.340
   175.00    2.565   2.538   2.489   2.422   2.394   2.629   2.525   2.295   2.264   2.348   2.412   2.355   2.153   1.984   1.922   2.011   2.034   2.052   2.185   2.265   2.282   2.432   2.369   2.288   2.227
   162.50    2.551   2.533   2.352   2.409   2.524   2.680   2.548   2.486   2.448   2.290   2.345   2.269   2.374   2.261   2.070   2.056   2.120   2.108   2.251   2.180   2.288   2.395   2.365   2.329   2.109
   150.00    2.316   2.239   2.210   2.320   2.401   2.573   2.719   2.507   2.525   2.406   2.180   2.355   2.406   2.173   2.144   2.258   2.133   2.112   2.123   2.226   2.267   2.311   2.303   2.358   2.278
   137.50    2.270   2.288   2.517   2.394   2.315   2.451   2.491   2.431   2.410   2.398   2.126   2.252   2.303   2.236   2.298   2.297   2.218   2.141   2.113   2.288   2.316   2.322   2.344   2.343   2.316
   125.00    2.403   2.358   2.361   2.387   2.497   2.640   2.446   2.388   2.339   2.268   2.305   2.349   2.224   2.214   2.291   2.246   2.270   2.389   2.354   2.241   2.553   2.366   2.335   2.345   2.277
   112.50    2.310   2.396   2.416   2.398   2.532   2.539   2.513   2.362   2.300   2.365   2.565   2.449   2.277   2.204   2.172   2.178   2.235   2.291   2.265   2.372   2.355   2.349   2.552   2.331   2.224
   100.00    2.366   2.386   2.493   2.507   2.548   2.582   2.480   2.352   2.359   2.423   2.560   2.424   2.380   2.304   2.148   2.215   2.224   2.223   2.312   2.245   2.324   2.434   2.392   2.316   2.430
    87.50    2.359   2.358   2.297   2.351   2.402   2.328   2.467   2.536   2.440   2.454   2.602   2.595   2.510   2.297   2.412   2.171   2.211   2.185   2.217   2.149   1.960   2.068   2.219   2.318   2.230
    75.00    2.229   2.204   2.401   2.307   2.119   2.337   2.454   2.503   2.504   2.483   2.410   2.349   2.393   2.295   2.247   2.218   2.177   2.219   2.217   2.182   1.884   2.004   2.065   2.225   2.296
    62.50    2.312   2.299   2.385   2.217   2.186   2.309   2.485   2.365   2.293   2.514   2.334   2.392   2.509   2.372   2.319   2.172   2.359   2.222   2.230   2.206   2.036   2.134   2.106   2.107   2.262
    50.00    2.506   2.362   2.188   2.414   2.300   2.250   2.487   2.327   2.307   2.416   2.599   2.552   2.503   2.470   2.337   2.432   2.424   2.352   2.434   2.170   2.166   2.158   2.266   2.225   2.299
    37.50    2.589   2.468   2.360   2.340   2.191   2.321   2.462   2.514   2.512   2.514   2.555   2.614   2.661   2.536   2.498   2.614   2.544   2.519   2.363   2.218   2.053   2.201   2.356   2.319   2.462
    25.00    2.384   2.607   2.484   2.404   2.310   2.483   2.422   2.476   2.471   2.467   2.456   2.535   2.563   2.474   2.486   2.436   2.428   2.454   2.352   2.214   2.187   2.279   2.326   2.342   2.445
    12.50    2.320   2.510   2.386   2.293   2.204   2.408   2.361   2.410   2.297   2.296   2.447   2.518   2.493   2.403   2.286   2.435   2.425   2.346   2.323   2.339   2.272   2.370   2.441   2.342   2.453
     0.00    2.381   2.337   2.197   2.072   2.144   2.118   2.253   2.386   2.546   2.413   2.479   2.365   2.325   2.305   2.339   2.245   2.158   2.310   2.471   2.468   2.419   2.368   2.432   2.230   2.352

   Height   Standard deviation at grid points for the v component:
   300.00    1.934   1.934   1.934   1.934   1.934   1.934   1.934   1.934   1.934   1.934   1.934   1.934   1.934   1.934   1.934   1.934   1.934   1.934   1.934   1.934   1.934   1.934   1.934   1.934   1.934
   287.50    1.934   1.934   1.934   1.934   1.934   1.934   1.934   1.934   1.934   1.934   1.934   1.934   1.934   1.934   1.934   1.934   1.934   1.934   1.934   1.934   1.934   1.934   1.934   1.934   1.934
   275.00    1.934   1.934   1.934   1.934   1.934   1.934   1.934   1.934   1.934   1.934   1.934   1.934   1.934   1.934   1.934   1.934   1.934   1.934   1.934   1.934   1.934   1.934   1.934   1.934   1.934
   262.50    1.934   1.934   1.934   1.934   1.934   1.934   1.934   1.934   1.934   1.934   1.934   1.934   1.934   1.934   1.934   1.934   1.934   1.934   1.934   1.934   1.934   1.934   1.934   1.934   1.934
   250.00    1.934   1.934   1.934   1.934   1.934   1.934   1.934   1.934   1.934   1.934   1.934   1.934   1.934   1.934   1.934   1.934   1.934   1.934   1.934   1.934   1.934   1.934   1.934   1.934   1.934
   237.50    1.934   1.934   1.934   1.934   1.934   1.934   1.934   1.934   1.934   1.934   1.934   1.934   1.934   1.934   1.934   1.934   1.934   1.934   1.934   1.934   1.934   1.934   1.934   1.934   1.934
   225.00    1.934   1.934   1.934   1.934   1.934   1.934   1.934   1.934   1.934   1.934   1.934   1.934   1.934   1.934   1.934   1.934   1.934   1.934   1.934   1.934   1.934   1.934   1.934   1.934   1.934
   212.50    1.934   1.934   1.934   1.934   1.934   1.934   1.934   1.934   1.934   1.934   1.934   1.934   1.934   1.934   1.934   1.934   1.934   1.934   1.934   1.934   1.934   1.934   1.934   1.934   1.934
   200.00    1.934   1.934   1.934   1.934   1.934   1.934   1.934   1.934   1.934   1.934   1.934   1.934   1.934   1.934   1.934   1.934   1.934   1.934   1.934   1.934   1.934   1.934   1.934   1.934   1.934
   187.50    1.934   1.934   1.934   1.934   1.934   1.934   1.934   1.934   1.934   1.934   1.934   1.934   1.934   1.934   1.934   1.934   1.934   1.934   1.934   1.934   1.934   1.934   1.934   1.934   1.934
   175.00    1.934   1.934   1.934   1.934   1.934   1.934   1.934   1.934   1.934   1.934   1.934   1.934   1.934   1.934   1.934   1.934   1.934   1.934   1.934   1.934   1.934   1.934   1.934   1.934   1.934
   162.50    1.934   1.934   1.934   1.934   1.934   1.934   1.934   1.934   1.934   1.934   1.934   1.934   1.934   1.934   1.934   1.934   1.934   1.934   1.934   1.934   1.934   1.934   1.934   1.934   1.934
   150.00    1.934   1.934   1.934   1.934   1.934   1.934   1.934   1.934   1.934   1.934   1.934   1.934   1.934   1.934   1.934   1.934   1.934   1.934   1.934   1.934   1.934   1.934   1.934   1.934   1.934
   137.50    1.934   1.934   1.934   1.934   1.934   1.934   1.934   1.934   1.934   1.934   1.934   1.934   1.934   1.934   1.934   1.934   1.934   1.934   1.934   1.934   1.934   1.934   1.934   1.934   1.934
   125.00    1.934   1.934   1.934   1.934   1.934   1.934   1.934   1.934   1.934   1.934   1.934   1.934   1.934   1.934   1.934   1.934   1.934   1.934   1.934   1.934   1.934   1.934   1.934   1.934   1.934
   112.50    1.934   1.934   1.934   1.934   1.934   1.934   1.934   1.934   1.934   1.934   1.934   1.934   1.934   1.934   1.934   1.934   1.934   1.934   1.934   1.934   1.934   1.934   1.934   1.934   1.934
   100.00    1.934   1.934   1.934   1.934   1.934   1.934   1.934   1.934   1.934   1.934   1.934   1.934   1.934   1.934   1.934   1.934   1.934   1.934   1.934   1.934   1.934   1.934   1.934   1.934   1.934
    87.50    1.934   1.934   1.934   1.934   1.934   1.934   1.934   1.934   1.934   1.934   1.934   1.934   1.934   1.934   1.934   1.934   1.934   1.934   1.934   1.934   1.934   1.934   1.934   1.934   1.934
    75.00    1.934   1.934   1.934   1.934   1.934   1.934   1.934   1.934   1.934   1.934   1.934   1.934   1.934   1.934   1.934   1.934   1.934   1.934   1.934   1.934   1.934   1.934   1.934   1.934   1.934
    62.50    1.934   1.934   1.934   1.934   1.934   1.934   1.934   1.934   1.934   1.934   1.934   1.934   1.934   1.934   1.934   1.934   1.934   1.934   1.934   1.934   1.934   1.934   1.934   1.934   1.934
    50.00    1.934   1.934   1.934   1.934   1.934   1.934   1.934   1.934   1.934   1.934   1.934   1.934   1.934   1.934   1.934   1.934   1.934   1.934   1.934   1.934   1.934   1.934   1.934   1.934   1.934
    37.50    1.934   1.934   1.934   1.934   1.934   1.934   1.934   1.934   1.934   1.934   1.934   1.934   1.934   1.934   1.934   1.934   1.934   1.934   1.934   1.934   1.934   1.934   1.934   1.934   1.934
    25.00    1.934   1.934   1.934   1.934   1.934   1.934   1.934   1.934   1.934   1.934   1.934   1.934   1.934   1.934   1.934   1.934   1.934   1.934   1.934   1.934   1.934   1.934   1.934   1.934   1.934
    12.50    1.934   1.934   1.934   1.934   1.934   1.934   1.934   1.934   1.934   1.934   1.934   1.934   1.934   1.934   1.934   1.934   1.934   1.934   1.934   1.934   1.934   1.934   1.934   1.934   1.934
     0.00    1.934   1.934   1.934   1.934   1.934   1.934   1.934   1.934   1.934   1.934   1.934   1.934   1.934   1.934   1.934   1.934   1.934   1.934   1.934   1.934   1.934   1.934   1.934   1.934   1.934

   Height   Standard deviation at grid points for the w component:
   300.00    1.201   1.201   1.201   1.201   1.201   1.201   1.201   1.201   1.201   1.201   1.201   1.201   1.201   1.201   1.201   1.201   1.201   1.201   1.201   1.201   1.201   1.201   1.201   1.201   1.201
   287.50    1.201   1.201   1.201   1.201   1.201   1.201   1.201   1.201   1.201   1.201   1.201   1.201   1.201   1.201   1.201   1.201   1.201   1.201   1.201   1.201   1.201   1.201   1.201   1.201   1.201
   275.00    1.201   1.201   1.201   1.201   1.201   1.201   1.201   1.201   1.201   1.201   1.201   1.201   1.201   1.201   1.201   1.201   1.201   1.201   1.201   1.201   1.201   1.201   1.201   1.201   1.201
   262.50    1.201   1.201   1.201   1.201   1.201   1.201   1.201   1.201   1.201   1.201   1.201   1.201   1.201   1.201   1.201   1.201   1.201   1.201   1.201   1.201   1.201   1.201   1.201   1.201   1.201
   250.00    1.201   1.201   1.201   1.201   1.201   1.201   1.201   1.201   1.201   1.201   1.201   1.201   1.201   1.201   1.201   1.201   1.201   1.201   1.201   1.201   1.201   1.201   1.201   1.201   1.201
   237.50    1.201   1.201   1.201   1.201   1.201   1.201   1.201   1.201   1.201   1.201   1.201   1.201   1.201   1.201   1.201   1.201   1.201   1.201   1.201   1.201   1.201   1.201   1.201   1.201   1.201
   225.00    1.201   1.201   1.201   1.201   1.201   1.201   1.201   1.201   1.201   1.201   1.201   1.201   1.201   1.201   1.201   1.201   1.201   1.201   1.201   1.201   1.201   1.201   1.201   1.201   1.201
   212.50    1.201   1.201   1.201   1.201   1.201   1.201   1.201   1.201   1.201   1.201   1.201   1.201   1.201   1.201   1.201   1.201   1.201   1.201   1.201   1.201   1.201   1.201   1.201   1.201   1.201
   200.00    1.201   1.201   1.201   1.201   1.201   1.201   1.201   1.201   1.201   1.201   1.201   1.201   1.201   1.201   1.201   1.201   1.201   1.201   1.201   1.201   1.201   1.201   1.201   1.201   1.201
   187.50    1.201   1.201   1.201   1.201   1.201   1.201   1.201   1.201   1.201   1.201   1.201   1.201   1.201   1.201   1.201   1.201   1.201   1.201   1.201   1.201   1.201   1.201   1.201   1.201   1.201
   175.00    1.201   1.201   1.201   1.201   1.201   1.201   1.201   1.201   1.201   1.201   1.201   1.201   1.201   1.201   1.201   1.201   1.201   1.201   1.201   1.201   1.201   1.201   1.201   1.201   1.201
   162.50    1.201   1.201   1.201   1.201   1.201   1.201   1.201   1.201   1.201   1.201   1.201   1.201   1.201   1.201   1.201   1.201   1.201   1.201   1.201   1.201   1.201   1.201   1.201   1.201   1.201
   150.00    1.201   1.201   1.201   1.201   1.201   1.201   1.201   1.201   1.201   1.201   1.201   1.201   1.201   1.201   1.201   1.201   1.201   1.201   1.201   1.201   1.201   1.201   1.201   1.201   1.201
   137.50    1.201   1.201   1.201   1.201   1.201   1.201   1.201   1.201   1.201   1.201   1.201   1.201   1.201   1.201   1.201   1.201   1.201   1.201   1.201   1.201   1.201   1.201   1.201   1.201   1.201
   125.00    1.201   1.201   1.201   1.201   1.201   1.201   1.201   1.201   1.201   1.201   1.201   1.201   1.201   1.201   1.201   1.201   1.201   1.201   1.201   1.201   1.201   1.201   1.201   1.201   1.201
   112.50    1.201   1.201   1.201   1.201   1.201   1.201   1.201   1.201   1.201   1.201   1.201   1.201   1.201   1.201   1.201   1.201   1.201   1.201   1.201   1.201   1.201   1.201   1.201   1.201   1.201
   100.00    1.201   1.201   1.201   1.201   1.201   1.201   1.201   1.201   1.201   1.201   1.201   1.201   1.201   1.201   1.201   1.201   1.201   1.201   1.201   1.201   1.201   1.201   1.201   1.201   1.201
    87.50    1.201   1.201   1.201   1.201   1.201   1.201   1.201   1.201   1.201   1.201   1.201   1.201   1.201   1.201   1.201   1.201   1.201   1.201   1.201   1.201   1.201   1.201   1.201   1.201   1.201
    75.00    1.201   1.201   1.201   1.201   1.201   1.201   1.201   1.201   1.201   1.201   1.201   1.201   1.201   1.201   1.201   1.201   1.201   1.201   1.201   1.201   1.201   1.201   1.201   1.201   1.201
    62.50    1.201   1.201   1.201   1.201   1.201   1.201   1.201   1.201   1.201   1.201   1.201   1.201   1.201   1.201   1.201   1.201   1.201   1.201   1.201   1.201   1.201   1.201   1.201   1.201   1.201
    50.00    1.201   1.201   1.201   1.201   1.201   1.201   1.201   1.201   1.201   1.201   1.201   1.201   1.201   1.201   1.201   1.201   1.201   1.201   1.201   1.201   1.201   1.201   1.201   1.201   1.201
    37.50    1.201   1.201   1.201   1.201   1.201   1.201   1.201   1.201   1.201   1.201   1.201   1.201   1.201   1.201   1.201   1.201   1.201   1.201   1.201   1.201   1.201   1.201   1.201   1.201   1.201
    25.00    1.201   1.201   1.201   1.201   1.201   1.201   1.201   1.201   1.201   1.201   1.201   1.201   1.201   1.201   1.201   1.201   1.201   1.201   1.201   1.201   1.201   1.201   1.201   1.201   1.201
    12.50    1.201   1.201   1.201   1.201   1.201   1.201   1.201   1.201   1.201   1.201   1.201   1.201   1.201   1.201   1.201   1.201   1.201   1.201   1.201   1.201   1.201   1.201   1.201   1.201   1.201
     0.00    1.201   1.201   1.201   1.201   1.201   1.201   1.201   1.201   1.201   1.201   1.201   1.201   1.201   1.201   1.201   1.201   1.201   1.201   1.201   1.201   1.201   1.201   1.201   1.201   1.201

   Mean standard deviation across all grid points:
      u component:    2.325 m/s
      v component:    1.934 m/s
      w component:    1.201 m/s


U-component (X) statistics from the interpolated hub point:

   Mean =  16.0000 m/s
   TI   =  15.0397 %


Processing complete.  1145 CPU seconds used.
