
This summary file was generated by TurbSim (from OpenFAST-v4.0.3) on 17-Apr-2025 at 15:04:51.


Runtime Options:

 438466540  Random seed #1
    RANLUX  Type of random number generator
         F  Output binary HH turbulence parameters?
         F  Output formatted turbulence parameters?
         F  Output AeroDyn HH files?
         T  Output AeroDyn FF files?
         F  Output BLADED FF files?
         F  Output tower data?
         F  Output HAWC FF files?
         F  Output formatted FF files?
         F  Output coherent turbulence time step file?
 0 -  NONE  IEC turbulence models scaled to exact specified standard deviation


Turbine/Model Specifications:

        25  Vertical grid-point matrix dimension
        25  Horizontal grid-point matrix dimension
     0.050  Time step [seconds]
   100.000  Analysis time [seconds]
   100.000  Usable output time [seconds]
   150.000  Hub height [m]
   299.999  Grid height [m]
   299.999  Grid width [m]
     0.000  Vertical flow angle [degrees]
     0.000  Horizontal flow angle [degrees]


Meteorological Boundary Conditions:

    IECKAI  IEC Kaimal spectral model
         1  IEC standard: IEC 61400-1 Ed. 3: 2005
         B  IEC turbulence characteristic
       NTM  IEC Normal Turbulence Model
       N/A  IEC Extreme Turbulence Model (ETM) "c" parameter [m/s]
       PL   Wind profile type
   150.000  Reference height [m]
    16.000  Reference wind speed [m/s]
       N/A  Jet height [m]
     0.120  Power law exponent
     0.030  Surface roughness length [m]


Non-IEC Meteorological Boundary Conditions:

       N/A  Site latitude [degrees]
       N/A  Gradient Richardson number
       N/A  Friction or shear velocity [m/s]
       N/A  Mixing layer depth [m]
       N/A  Mean hub u'w' Reynolds stress
       N/A  Mean hub u'v' Reynolds stress
       N/A  Mean hub v'w' Reynolds stress


Spatial Coherence Models:

       IEC  u-component coherence model
      NONE  v-component coherence model
      NONE  w-component coherence model
(   12.000, 0.353E-03)  u-component coherence parameters
                   N/A  v-component coherence parameters
                   N/A  w-component coherence parameters
       N/A  Coherence exponent


You have requested that the following file(s) be generated:

   weis_job_NTM_U16.000000_Seed438466540.0.bts (AeroDyn/TurbSim full-field wind file)


Turbulence Simulation Scaling Parameter Summary:

   Turbulence model used                            =  IEC Kaimal
   Turbulence characteristic                        =  B
   IEC turbulence type                              =  Normal Turbulence Model
   IEC standard                                     =  IEC 61400-1 Ed. 3: 2005
   Mean wind speed at hub height                    =   16.000 m/s
   Expected value of turbulence intensity at 15 m/s =   14.000%
   Characteristic value of standard deviation       =    2.464 m/s
   Turbulence scale                                 =   42.000 m
   u-component integral scale                       =  340.200 m
   Coherency scale                                  =  340.200 m
   Characteristic value of hub turbulence intensity =   15.400%
   Gradient Richardson number                       =    0.000

   Wind profile type                                =  Power law
   Power law exponent                               =    0.120
   Mean shear across rotor disk                     =    0.046 (m/s)/m
   Assumed rotor diameter                           =  299.999 m
   Surface roughness length                         =    0.030 m

   Nyquist frequency of turbulent wind field        =   10.000 Hz

   Number of time steps in the FFT                  =     2000
   Number of time steps output                      =     2000
   Number of points simulated                       =      625


Mean Flow Angles:

   Vertical   =   0.0 degrees
   Horizontal =   0.0 degrees

Mean Wind Speed Profile:

   Height    Wind Speed   Horizontal Angle  Vertical Angle  U-comp (X)   V-comp (Y)   W-comp (Z)
     (m)        (m/s)         (degrees)       (degrees)       (m/s)        (m/s)        (m/s)   
   ------    ----------   ----------------  --------------  ----------   ----------   ----------
    300.0       17.39            0.00            0.00         17.39         0.00         0.00
    287.5       17.30            0.00            0.00         17.30         0.00         0.00
    275.0       17.21            0.00            0.00         17.21         0.00         0.00
    262.5       17.11            0.00            0.00         17.11         0.00         0.00
    250.0       17.01            0.00            0.00         17.01         0.00         0.00
    237.5       16.91            0.00            0.00         16.91         0.00         0.00
    225.0       16.80            0.00            0.00         16.80         0.00         0.00
    212.5       16.68            0.00            0.00         16.68         0.00         0.00
    200.0       16.56            0.00            0.00         16.56         0.00         0.00
    187.5       16.43            0.00            0.00         16.43         0.00         0.00
    175.0       16.30            0.00            0.00         16.30         0.00         0.00
    162.5       16.15            0.00            0.00         16.15         0.00         0.00
    150.0       16.00            0.00            0.00         16.00         0.00         0.00
    137.5       15.83            0.00            0.00         15.83         0.00         0.00
    125.0       15.65            0.00            0.00         15.65         0.00         0.00
    112.5       15.46            0.00            0.00         15.46         0.00         0.00
    100.0       15.24            0.00            0.00         15.24         0.00         0.00
     87.5       15.00            0.00            0.00         15.00         0.00         0.00
     75.0       14.72            0.00            0.00         14.72         0.00         0.00
     62.5       14.40            0.00            0.00         14.40         0.00         0.00
     50.0       14.02            0.00            0.00         14.02         0.00         0.00
     37.5       13.55            0.00            0.00         13.55         0.00         0.00
     25.0       12.90            0.00            0.00         12.90         0.00         0.00
     12.5       11.87            0.00            0.00         11.87         0.00         0.00
      0.0        3.54            0.00            0.00          3.54         0.00         0.00


Harvested Random Seeds after Generation of the Random Numbers:

     17421875 K 1
            0 K 2


Hub-Height Simulated Turbulence Statistical Summary:

   Type of Wind        Min (m/s)   Mean (m/s)    Max (m/s)  Sigma (m/s)       TI (%)
   ----------------    ---------   ----------    ---------  -----------       ------
   Longitudinal (u)        10.94        16.00        20.87        2.106       13.161
   Lateral (v)             -6.46        -0.00         5.37        1.825       11.404
   Vertical (w)            -3.68        -0.00         4.04        1.183        7.391
   U component             10.94        16.00        20.87        2.106       13.161
   V component             -6.46        -0.00         5.37        1.825       11.404
   W component             -3.68        -0.00         4.04        1.183        7.391
   Horizontal (U&V)        11.08        16.10        20.88        2.098       13.029
   Total                   11.20        16.15        20.90        2.094       12.966

                       Min Reynolds     Mean Reynolds    Max Reynolds    Correlation
   Product             Stress (m/s)^2   Stress (m/s)^2   Stress (m/s)^2  Coefficient
   ----------------    --------------   --------------   --------------  -----------
   u'w'                    -11.331             0.182            12.085         0.073
   u'v'                    -18.184            -0.883             9.892        -0.230
   v'w'                    -23.137            -0.412             9.922        -0.191


   Friction Velocity (Ustar)  =      0.426 m/s
   Maximum Instantaneous TKE  =     26.833 (m/s)^2
   Maximum Instantaneous CTKE =     12.940 (m/s)^2


Grid Point Variance Summary:

   Y-coord -150.00 -137.50 -125.00 -112.50 -100.00  -87.50  -75.00  -62.50  -50.00  -37.50  -25.00  -12.50    0.00   12.50   25.00   37.50   50.00   62.50   75.00   87.50  100.00  112.50  125.00  137.50  150.00

   Height   Standard deviation at grid points for the u component:
   300.00    2.049   2.097   2.153   2.480   2.002   1.800   2.041   2.054   2.285   1.960   1.712   2.085   1.882   1.939   1.742   1.893   2.123   1.814   2.024   1.944   1.667   1.504   1.530   1.851   1.556
   287.50    1.853   1.871   1.904   2.064   1.877   2.086   2.294   1.848   2.218   2.266   2.002   2.223   1.613   1.720   1.553   1.761   2.021   1.845   2.065   1.746   1.503   1.576   2.080   2.229   1.770
   275.00    1.864   1.857   2.043   1.703   1.797   2.097   2.048   2.075   2.170   2.085   1.830   2.017   1.584   1.462   1.553   1.994   2.298   2.172   1.693   1.603   1.411   1.836   2.091   1.949   2.365
   262.50    1.818   1.764   1.714   1.821   1.947   1.900   2.232   2.064   2.333   2.389   2.319   1.705   1.996   1.709   1.776   2.169   2.197   1.891   1.600   1.604   1.922   2.101   1.821   2.331   2.579
   250.00    1.619   1.888   1.669   1.618   1.889   1.823   1.837   1.720   2.085   2.322   2.164   1.994   1.778   1.870   2.267   2.225   1.854   1.829   1.573   1.760   2.186   2.414   2.428   2.227   2.544
   237.50    2.037   2.095   1.872   1.714   1.623   1.747   1.520   1.543   1.761   1.956   1.628   1.845   1.623   2.015   2.118   2.201   2.121   1.645   1.721   1.845   1.986   2.202   2.214   2.200   2.304
   225.00    1.775   1.799   1.977   1.647   1.625   2.016   1.576   1.584   1.642   1.579   1.588   1.592   1.639   1.982   1.842   2.090   2.246   1.833   1.577   1.749   1.870   2.056   2.231   1.930   2.028
   212.50    2.359   1.947   1.757   1.759   1.791   1.845   1.901   1.746   1.540   1.868   1.592   1.868   1.952   1.400   1.912   2.045   1.937   1.730   1.609   1.827   2.088   2.393   2.717   2.687   2.039
   200.00    2.164   1.678   2.010   1.883   2.021   2.180   2.384   1.979   1.861   1.980   1.654   2.051   1.900   2.060   2.027   1.806   1.941   1.748   1.832   1.828   2.369   2.180   2.695   2.553   2.027
   187.50    1.934   1.975   1.916   1.909   2.182   2.266   2.235   1.923   2.314   2.135   2.060   2.171   2.194   1.871   1.909   1.985   1.945   1.816   1.948   2.020   2.297   2.497   2.611   2.176   2.165
   175.00    1.852   1.797   1.768   1.497   1.787   2.224   2.358   2.227   2.309   2.479   2.296   2.068   1.917   1.842   1.973   1.747   1.962   1.810   2.224   2.557   2.184   2.216   2.314   2.381   2.071
   162.50    1.463   1.688   1.580   2.000   1.783   2.172   2.301   1.876   2.345   2.278   1.778   1.859   1.983   1.781   2.064   1.969   2.097   2.226   2.254   2.289   2.201   1.976   2.077   2.247   2.070
   150.00    1.601   1.688   1.616   2.133   2.210   1.946   1.776   2.126   2.179   2.033   1.812   2.121   2.106   1.863   2.136   2.065   2.208   2.084   1.998   1.604   2.005   1.677   1.668   1.996   1.887
   137.50    1.602   1.821   2.010   2.079   2.172   2.384   2.075   2.013   1.894   1.804   1.982   2.050   1.894   1.663   1.578   1.755   1.897   1.852   1.655   1.595   1.879   1.850   1.728   1.946   1.969
   125.00    1.665   1.778   2.114   2.201   2.337   2.581   2.713   2.171   2.113   2.143   1.850   2.126   1.829   1.798   1.807   2.119   1.968   1.594   1.766   2.034   2.210   1.774   1.770   1.884   1.852
   112.50    1.909   2.141   2.012   2.038   2.431   2.634   2.334   1.960   2.169   2.231   2.028   1.844   2.009   2.003   2.120   2.287   2.077   1.601   1.740   1.818   2.324   2.100   1.826   1.657   1.735
   100.00    2.075   1.942   2.062   2.204   2.219   2.536   2.309   1.920   1.975   2.121   2.021   1.747   1.975   2.122   2.157   2.080   2.046   1.955   1.869   1.729   2.061   1.992   1.848   1.939   2.062
    87.50    1.935   1.944   2.001   2.423   2.619   2.539   2.350   2.088   1.714   1.963   1.890   1.928   1.965   1.856   2.118   1.740   1.774   1.647   1.725   1.724   1.753   2.014   1.838   1.842   2.043
    75.00    1.913   1.797   2.006   2.313   2.355   2.191   2.173   1.761   1.802   1.861   1.893   2.035   1.954   2.113   2.279   2.059   1.771   1.723   1.724   1.748   1.791   2.001   1.882   1.746   1.557
    62.50    1.793   1.677   2.036   2.135   2.076   1.818   2.006   1.660   1.729   1.979   1.853   1.920   1.954   2.166   2.018   2.134   2.110   1.861   1.884   1.836   1.774   1.788   1.743   1.294   1.366
    50.00    2.287   2.075   2.261   1.954   1.976   2.055   1.942   1.760   1.540   1.949   2.254   1.836   1.975   2.134   2.203   2.026   1.862   1.845   2.070   1.983   1.483   1.736   1.543   1.425   1.392
    37.50    2.059   2.105   2.092   1.812   1.975   1.890   1.780   1.705   1.726   2.127   2.006   1.988   1.886   1.930   2.031   1.803   1.625   2.010   2.060   1.938   1.640   1.530   1.702   1.497   1.625
    25.00    1.724   1.891   2.107   2.212   1.742   1.513   1.710   1.974   1.854   2.145   2.422   2.178   2.381   2.252   1.850   1.854   2.050   2.010   1.904   2.081   1.999   1.983   1.806   1.843   1.820
    12.50    1.905   1.993   2.116   2.178   1.601   1.390   1.646   2.007   2.176   2.180   2.451   2.639   2.285   2.262   2.017   1.946   1.895   1.881   1.943   1.956   1.910   2.243   2.231   2.320   1.993
     0.00    2.052   2.292   2.093   2.076   1.669   1.844   1.976   1.990   1.685   1.853   2.038   2.362   2.244   2.079   2.033   1.666   1.917   1.969   1.800   1.815   1.961   1.855   2.082   1.921   1.866

   Height   Standard deviation at grid points for the v component:
   300.00    1.825   1.825   1.825   1.825   1.825   1.825   1.825   1.825   1.825   1.825   1.825   1.825   1.825   1.825   1.825   1.825   1.825   1.825   1.825   1.825   1.825   1.825   1.825   1.825   1.825
   287.50    1.825   1.825   1.825   1.825   1.825   1.825   1.825   1.825   1.825   1.825   1.825   1.825   1.825   1.825   1.825   1.825   1.825   1.825   1.825   1.825   1.825   1.825   1.825   1.825   1.825
   275.00    1.825   1.825   1.825   1.825   1.825   1.825   1.825   1.825   1.825   1.825   1.825   1.825   1.825   1.825   1.825   1.825   1.825   1.825   1.825   1.825   1.825   1.825   1.825   1.825   1.825
   262.50    1.825   1.825   1.825   1.825   1.825   1.825   1.825   1.825   1.825   1.825   1.825   1.825   1.825   1.825   1.825   1.825   1.825   1.825   1.825   1.825   1.825   1.825   1.825   1.825   1.825
   250.00    1.825   1.825   1.825   1.825   1.825   1.825   1.825   1.825   1.825   1.825   1.825   1.825   1.825   1.825   1.825   1.825   1.825   1.825   1.825   1.825   1.825   1.825   1.825   1.825   1.825
   237.50    1.825   1.825   1.825   1.825   1.825   1.825   1.825   1.825   1.825   1.825   1.825   1.825   1.825   1.825   1.825   1.825   1.825   1.825   1.825   1.825   1.825   1.825   1.825   1.825   1.825
   225.00    1.825   1.825   1.825   1.825   1.825   1.825   1.825   1.825   1.825   1.825   1.825   1.825   1.825   1.825   1.825   1.825   1.825   1.825   1.825   1.825   1.825   1.825   1.825   1.825   1.825
   212.50    1.825   1.825   1.825   1.825   1.825   1.825   1.825   1.825   1.825   1.825   1.825   1.825   1.825   1.825   1.825   1.825   1.825   1.825   1.825   1.825   1.825   1.825   1.825   1.825   1.825
   200.00    1.825   1.825   1.825   1.825   1.825   1.825   1.825   1.825   1.825   1.825   1.825   1.825   1.825   1.825   1.825   1.825   1.825   1.825   1.825   1.825   1.825   1.825   1.825   1.825   1.825
   187.50    1.825   1.825   1.825   1.825   1.825   1.825   1.825   1.825   1.825   1.825   1.825   1.825   1.825   1.825   1.825   1.825   1.825   1.825   1.825   1.825   1.825   1.825   1.825   1.825   1.825
   175.00    1.825   1.825   1.825   1.825   1.825   1.825   1.825   1.825   1.825   1.825   1.825   1.825   1.825   1.825   1.825   1.825   1.825   1.825   1.825   1.825   1.825   1.825   1.825   1.825   1.825
   162.50    1.825   1.825   1.825   1.825   1.825   1.825   1.825   1.825   1.825   1.825   1.825   1.825   1.825   1.825   1.825   1.825   1.825   1.825   1.825   1.825   1.825   1.825   1.825   1.825   1.825
   150.00    1.825   1.825   1.825   1.825   1.825   1.825   1.825   1.825   1.825   1.825   1.825   1.825   1.825   1.825   1.825   1.825   1.825   1.825   1.825   1.825   1.825   1.825   1.825   1.825   1.825
   137.50    1.825   1.825   1.825   1.825   1.825   1.825   1.825   1.825   1.825   1.825   1.825   1.825   1.825   1.825   1.825   1.825   1.825   1.825   1.825   1.825   1.825   1.825   1.825   1.825   1.825
   125.00    1.825   1.825   1.825   1.825   1.825   1.825   1.825   1.825   1.825   1.825   1.825   1.825   1.825   1.825   1.825   1.825   1.825   1.825   1.825   1.825   1.825   1.825   1.825   1.825   1.825
   112.50    1.825   1.825   1.825   1.825   1.825   1.825   1.825   1.825   1.825   1.825   1.825   1.825   1.825   1.825   1.825   1.825   1.825   1.825   1.825   1.825   1.825   1.825   1.825   1.825   1.825
   100.00    1.825   1.825   1.825   1.825   1.825   1.825   1.825   1.825   1.825   1.825   1.825   1.825   1.825   1.825   1.825   1.825   1.825   1.825   1.825   1.825   1.825   1.825   1.825   1.825   1.825
    87.50    1.825   1.825   1.825   1.825   1.825   1.825   1.825   1.825   1.825   1.825   1.825   1.825   1.825   1.825   1.825   1.825   1.825   1.825   1.825   1.825   1.825   1.825   1.825   1.825   1.825
    75.00    1.825   1.825   1.825   1.825   1.825   1.825   1.825   1.825   1.825   1.825   1.825   1.825   1.825   1.825   1.825   1.825   1.825   1.825   1.825   1.825   1.825   1.825   1.825   1.825   1.825
    62.50    1.825   1.825   1.825   1.825   1.825   1.825   1.825   1.825   1.825   1.825   1.825   1.825   1.825   1.825   1.825   1.825   1.825   1.825   1.825   1.825   1.825   1.825   1.825   1.825   1.825
    50.00    1.825   1.825   1.825   1.825   1.825   1.825   1.825   1.825   1.825   1.825   1.825   1.825   1.825   1.825   1.825   1.825   1.825   1.825   1.825   1.825   1.825   1.825   1.825   1.825   1.825
    37.50    1.825   1.825   1.825   1.825   1.825   1.825   1.825   1.825   1.825   1.825   1.825   1.825   1.825   1.825   1.825   1.825   1.825   1.825   1.825   1.825   1.825   1.825   1.825   1.825   1.825
    25.00    1.825   1.825   1.825   1.825   1.825   1.825   1.825   1.825   1.825   1.825   1.825   1.825   1.825   1.825   1.825   1.825   1.825   1.825   1.825   1.825   1.825   1.825   1.825   1.825   1.825
    12.50    1.825   1.825   1.825   1.825   1.825   1.825   1.825   1.825   1.825   1.825   1.825   1.825   1.825   1.825   1.825   1.825   1.825   1.825   1.825   1.825   1.825   1.825   1.825   1.825   1.825
     0.00    1.825   1.825   1.825   1.825   1.825   1.825   1.825   1.825   1.825   1.825   1.825   1.825   1.825   1.825   1.825   1.825   1.825   1.825   1.825   1.825   1.825   1.825   1.825   1.825   1.825

   Height   Standard deviation at grid points for the w component:
   300.00    1.183   1.183   1.183   1.183   1.183   1.183   1.183   1.183   1.183   1.183   1.183   1.183   1.183   1.183   1.183   1.183   1.183   1.183   1.183   1.183   1.183   1.183   1.183   1.183   1.183
   287.50    1.183   1.183   1.183   1.183   1.183   1.183   1.183   1.183   1.183   1.183   1.183   1.183   1.183   1.183   1.183   1.183   1.183   1.183   1.183   1.183   1.183   1.183   1.183   1.183   1.183
   275.00    1.183   1.183   1.183   1.183   1.183   1.183   1.183   1.183   1.183   1.183   1.183   1.183   1.183   1.183   1.183   1.183   1.183   1.183   1.183   1.183   1.183   1.183   1.183   1.183   1.183
   262.50    1.183   1.183   1.183   1.183   1.183   1.183   1.183   1.183   1.183   1.183   1.183   1.183   1.183   1.183   1.183   1.183   1.183   1.183   1.183   1.183   1.183   1.183   1.183   1.183   1.183
   250.00    1.183   1.183   1.183   1.183   1.183   1.183   1.183   1.183   1.183   1.183   1.183   1.183   1.183   1.183   1.183   1.183   1.183   1.183   1.183   1.183   1.183   1.183   1.183   1.183   1.183
   237.50    1.183   1.183   1.183   1.183   1.183   1.183   1.183   1.183   1.183   1.183   1.183   1.183   1.183   1.183   1.183   1.183   1.183   1.183   1.183   1.183   1.183   1.183   1.183   1.183   1.183
   225.00    1.183   1.183   1.183   1.183   1.183   1.183   1.183   1.183   1.183   1.183   1.183   1.183   1.183   1.183   1.183   1.183   1.183   1.183   1.183   1.183   1.183   1.183   1.183   1.183   1.183
   212.50    1.183   1.183   1.183   1.183   1.183   1.183   1.183   1.183   1.183   1.183   1.183   1.183   1.183   1.183   1.183   1.183   1.183   1.183   1.183   1.183   1.183   1.183   1.183   1.183   1.183
   200.00    1.183   1.183   1.183   1.183   1.183   1.183   1.183   1.183   1.183   1.183   1.183   1.183   1.183   1.183   1.183   1.183   1.183   1.183   1.183   1.183   1.183   1.183   1.183   1.183   1.183
   187.50    1.183   1.183   1.183   1.183   1.183   1.183   1.183   1.183   1.183   1.183   1.183   1.183   1.183   1.183   1.183   1.183   1.183   1.183   1.183   1.183   1.183   1.183   1.183   1.183   1.183
   175.00    1.183   1.183   1.183   1.183   1.183   1.183   1.183   1.183   1.183   1.183   1.183   1.183   1.183   1.183   1.183   1.183   1.183   1.183   1.183   1.183   1.183   1.183   1.183   1.183   1.183
   162.50    1.183   1.183   1.183   1.183   1.183   1.183   1.183   1.183   1.183   1.183   1.183   1.183   1.183   1.183   1.183   1.183   1.183   1.183   1.183   1.183   1.183   1.183   1.183   1.183   1.183
   150.00    1.183   1.183   1.183   1.183   1.183   1.183   1.183   1.183   1.183   1.183   1.183   1.183   1.183   1.183   1.183   1.183   1.183   1.183   1.183   1.183   1.183   1.183   1.183   1.183   1.183
   137.50    1.183   1.183   1.183   1.183   1.183   1.183   1.183   1.183   1.183   1.183   1.183   1.183   1.183   1.183   1.183   1.183   1.183   1.183   1.183   1.183   1.183   1.183   1.183   1.183   1.183
   125.00    1.183   1.183   1.183   1.183   1.183   1.183   1.183   1.183   1.183   1.183   1.183   1.183   1.183   1.183   1.183   1.183   1.183   1.183   1.183   1.183   1.183   1.183   1.183   1.183   1.183
   112.50    1.183   1.183   1.183   1.183   1.183   1.183   1.183   1.183   1.183   1.183   1.183   1.183   1.183   1.183   1.183   1.183   1.183   1.183   1.183   1.183   1.183   1.183   1.183   1.183   1.183
   100.00    1.183   1.183   1.183   1.183   1.183   1.183   1.183   1.183   1.183   1.183   1.183   1.183   1.183   1.183   1.183   1.183   1.183   1.183   1.183   1.183   1.183   1.183   1.183   1.183   1.183
    87.50    1.183   1.183   1.183   1.183   1.183   1.183   1.183   1.183   1.183   1.183   1.183   1.183   1.183   1.183   1.183   1.183   1.183   1.183   1.183   1.183   1.183   1.183   1.183   1.183   1.183
    75.00    1.183   1.183   1.183   1.183   1.183   1.183   1.183   1.183   1.183   1.183   1.183   1.183   1.183   1.183   1.183   1.183   1.183   1.183   1.183   1.183   1.183   1.183   1.183   1.183   1.183
    62.50    1.183   1.183   1.183   1.183   1.183   1.183   1.183   1.183   1.183   1.183   1.183   1.183   1.183   1.183   1.183   1.183   1.183   1.183   1.183   1.183   1.183   1.183   1.183   1.183   1.183
    50.00    1.183   1.183   1.183   1.183   1.183   1.183   1.183   1.183   1.183   1.183   1.183   1.183   1.183   1.183   1.183   1.183   1.183   1.183   1.183   1.183   1.183   1.183   1.183   1.183   1.183
    37.50    1.183   1.183   1.183   1.183   1.183   1.183   1.183   1.183   1.183   1.183   1.183   1.183   1.183   1.183   1.183   1.183   1.183   1.183   1.183   1.183   1.183   1.183   1.183   1.183   1.183
    25.00    1.183   1.183   1.183   1.183   1.183   1.183   1.183   1.183   1.183   1.183   1.183   1.183   1.183   1.183   1.183   1.183   1.183   1.183   1.183   1.183   1.183   1.183   1.183   1.183   1.183
    12.50    1.183   1.183   1.183   1.183   1.183   1.183   1.183   1.183   1.183   1.183   1.183   1.183   1.183   1.183   1.183   1.183   1.183   1.183   1.183   1.183   1.183   1.183   1.183   1.183   1.183
     0.00    1.183   1.183   1.183   1.183   1.183   1.183   1.183   1.183   1.183   1.183   1.183   1.183   1.183   1.183   1.183   1.183   1.183   1.183   1.183   1.183   1.183   1.183   1.183   1.183   1.183

   Mean standard deviation across all grid points:
      u component:    1.962 m/s
      v component:    1.825 m/s
      w component:    1.183 m/s


U-component (X) statistics from the interpolated hub point:

   Mean =  16.0000 m/s
   TI   =  13.1607 %


Processing complete.  190.23 CPU seconds used.
