
This summary file was generated by TurbSim (from OpenFAST-v4.0.3) on 17-Apr-2025 at 15:04:43.


Runtime Options:

 680233354  Random seed #1
    RANLUX  Type of random number generator
         F  Output binary HH turbulence parameters?
         F  Output formatted turbulence parameters?
         F  Output AeroDyn HH files?
         T  Output AeroDyn FF files?
         F  Output BLADED FF files?
         F  Output tower data?
         F  Output HAWC FF files?
         F  Output formatted FF files?
         F  Output coherent turbulence time step file?
 0 -  NONE  IEC turbulence models scaled to exact specified standard deviation


Turbine/Model Specifications:

        25  Vertical grid-point matrix dimension
        25  Horizontal grid-point matrix dimension
     0.050  Time step [seconds]
   100.000  Analysis time [seconds]
   100.000  Usable output time [seconds]
   150.000  Hub height [m]
   299.999  Grid height [m]
   299.999  Grid width [m]
     0.000  Vertical flow angle [degrees]
     0.000  Horizontal flow angle [degrees]


Meteorological Boundary Conditions:

    IECKAI  IEC Kaimal spectral model
         1  IEC standard: IEC 61400-1 Ed. 3: 2005
         B  IEC turbulence characteristic
       NTM  IEC Normal Turbulence Model
       N/A  IEC Extreme Turbulence Model (ETM) "c" parameter [m/s]
       PL   Wind profile type
   150.000  Reference height [m]
    14.000  Reference wind speed [m/s]
       N/A  Jet height [m]
     0.120  Power law exponent
     0.030  Surface roughness length [m]


Non-IEC Meteorological Boundary Conditions:

       N/A  Site latitude [degrees]
       N/A  Gradient Richardson number
       N/A  Friction or shear velocity [m/s]
       N/A  Mixing layer depth [m]
       N/A  Mean hub u'w' Reynolds stress
       N/A  Mean hub u'v' Reynolds stress
       N/A  Mean hub v'w' Reynolds stress


Spatial Coherence Models:

       IEC  u-component coherence model
      NONE  v-component coherence model
      NONE  w-component coherence model
(   12.000, 0.353E-03)  u-component coherence parameters
                   N/A  v-component coherence parameters
                   N/A  w-component coherence parameters
       N/A  Coherence exponent


You have requested that the following file(s) be generated:

   weis_job_NTM_U14.000000_Seed680233354.0.bts (AeroDyn/TurbSim full-field wind file)


Turbulence Simulation Scaling Parameter Summary:

   Turbulence model used                            =  IEC Kaimal
   Turbulence characteristic                        =  B
   IEC turbulence type                              =  Normal Turbulence Model
   IEC standard                                     =  IEC 61400-1 Ed. 3: 2005
   Mean wind speed at hub height                    =   14.000 m/s
   Expected value of turbulence intensity at 15 m/s =   14.000%
   Characteristic value of standard deviation       =    2.254 m/s
   Turbulence scale                                 =   42.000 m
   u-component integral scale                       =  340.200 m
   Coherency scale                                  =  340.200 m
   Characteristic value of hub turbulence intensity =   16.100%
   Gradient Richardson number                       =    0.000

   Wind profile type                                =  Power law
   Power law exponent                               =    0.120
   Mean shear across rotor disk                     =    0.040 (m/s)/m
   Assumed rotor diameter                           =  299.999 m
   Surface roughness length                         =    0.030 m

   Nyquist frequency of turbulent wind field        =   10.000 Hz

   Number of time steps in the FFT                  =     2000
   Number of time steps output                      =     2000
   Number of points simulated                       =      625


Mean Flow Angles:

   Vertical   =   0.0 degrees
   Horizontal =   0.0 degrees

Mean Wind Speed Profile:

   Height    Wind Speed   Horizontal Angle  Vertical Angle  U-comp (X)   V-comp (Y)   W-comp (Z)
     (m)        (m/s)         (degrees)       (degrees)       (m/s)        (m/s)        (m/s)   
   ------    ----------   ----------------  --------------  ----------   ----------   ----------
    300.0       15.21            0.00            0.00         15.21         0.00         0.00
    287.5       15.14            0.00            0.00         15.14         0.00         0.00
    275.0       15.06            0.00            0.00         15.06         0.00         0.00
    262.5       14.97            0.00            0.00         14.97         0.00         0.00
    250.0       14.89            0.00            0.00         14.89         0.00         0.00
    237.5       14.79            0.00            0.00         14.79         0.00         0.00
    225.0       14.70            0.00            0.00         14.70         0.00         0.00
    212.5       14.60            0.00            0.00         14.60         0.00         0.00
    200.0       14.49            0.00            0.00         14.49         0.00         0.00
    187.5       14.38            0.00            0.00         14.38         0.00         0.00
    175.0       14.26            0.00            0.00         14.26         0.00         0.00
    162.5       14.14            0.00            0.00         14.14         0.00         0.00
    150.0       14.00            0.00            0.00         14.00         0.00         0.00
    137.5       13.85            0.00            0.00         13.85         0.00         0.00
    125.0       13.70            0.00            0.00         13.70         0.00         0.00
    112.5       13.52            0.00            0.00         13.52         0.00         0.00
    100.0       13.34            0.00            0.00         13.34         0.00         0.00
     87.5       13.12            0.00            0.00         13.12         0.00         0.00
     75.0       12.88            0.00            0.00         12.88         0.00         0.00
     62.5       12.60            0.00            0.00         12.60         0.00         0.00
     50.0       12.27            0.00            0.00         12.27         0.00         0.00
     37.5       11.85            0.00            0.00         11.85         0.00         0.00
     25.0       11.29            0.00            0.00         11.29         0.00         0.00
     12.5       10.39            0.00            0.00         10.39         0.00         0.00
      0.0        3.10            0.00            0.00          3.10         0.00         0.00


Harvested Random Seeds after Generation of the Random Numbers:

     17421875 K 1
            0 K 2


Hub-Height Simulated Turbulence Statistical Summary:

   Type of Wind        Min (m/s)   Mean (m/s)    Max (m/s)  Sigma (m/s)       TI (%)
   ----------------    ---------   ----------    ---------  -----------       ------
   Longitudinal (u)         7.93        14.00        19.69        2.143       15.305
   Lateral (v)             -4.93         0.00         4.19        1.656       11.826
   Vertical (w)            -3.08        -0.00         4.78        1.081        7.724
   U component              7.93        14.00        19.69        2.143       15.305
   V component             -4.93         0.00         4.19        1.656       11.826
   W component             -3.08        -0.00         4.78        1.081        7.724
   Horizontal (U&V)         8.02        14.10        19.83        2.148       15.237
   Total                    8.13        14.14        19.84        2.142       15.150

                       Min Reynolds     Mean Reynolds    Max Reynolds    Correlation
   Product             Stress (m/s)^2   Stress (m/s)^2   Stress (m/s)^2  Coefficient
   ----------------    --------------   --------------   --------------  -----------
   u'w'                    -11.068            -0.038            11.951        -0.016
   u'v'                    -13.788            -0.216            15.945        -0.061
   v'w'                    -10.735             0.261            10.223         0.146


   Friction Velocity (Ustar)  =      0.194 m/s
   Maximum Instantaneous TKE  =     20.695 (m/s)^2
   Maximum Instantaneous CTKE =      8.711 (m/s)^2


Grid Point Variance Summary:

   Y-coord -150.00 -137.50 -125.00 -112.50 -100.00  -87.50  -75.00  -62.50  -50.00  -37.50  -25.00  -12.50    0.00   12.50   25.00   37.50   50.00   62.50   75.00   87.50  100.00  112.50  125.00  137.50  150.00

   Height   Standard deviation at grid points for the u component:
   300.00    1.583   1.629   1.730   1.991   2.107   1.949   1.592   1.791   1.985   2.159   1.851   2.184   1.879   2.168   2.244   2.129   1.846   1.730   1.822   1.745   2.274   2.198   2.332   2.108   1.776
   287.50    1.665   1.227   1.494   1.525   1.559   1.641   1.697   1.890   2.045   1.956   1.965   2.086   2.166   2.098   2.142   2.021   1.821   1.826   1.700   1.687   2.101   1.799   1.959   1.777   1.726
   275.00    1.486   1.286   1.299   1.315   1.384   1.507   1.498   1.687   1.633   1.804   1.551   1.750   1.787   1.944   1.927   2.060   1.504   1.566   1.872   1.890   2.045   1.996   1.916   1.773   1.718
   262.50    1.451   1.372   1.470   1.286   1.483   1.186   1.531   1.495   1.617   1.709   1.873   1.543   1.487   1.681   1.591   1.564   1.554   1.689   1.868   1.893   1.687   1.413   1.407   1.541   1.502
   250.00    1.421   1.452   1.355   1.533   1.267   1.474   1.375   1.788   1.802   1.763   1.717   1.518   1.784   1.479   1.528   1.704   1.752   2.025   2.048   2.005   1.823   1.438   1.748   1.783   1.667
   237.50    1.765   1.698   1.421   1.399   1.386   1.344   1.392   1.493   1.943   2.018   1.807   2.135   2.181   2.121   1.780   1.872   1.912   2.175   1.723   2.050   1.939   2.062   1.496   1.495   1.623
   225.00    1.859   1.646   1.635   1.527   1.426   1.445   1.779   1.983   1.781   2.151   2.099   2.203   2.221   2.032   2.239   1.834   2.085   1.840   2.194   2.052   2.344   2.164   1.989   1.627   1.386
   212.50    2.010   1.671   1.387   1.581   1.834   2.070   1.694   2.019   1.887   2.139   1.821   2.053   1.812   2.234   1.873   1.739   1.926   2.456   2.081   2.378   2.345   2.152   1.826   1.558   1.536
   200.00    1.826   1.911   1.721   1.607   1.719   1.798   1.452   1.781   2.024   2.158   1.600   1.876   1.588   1.727   1.815   2.120   2.321   2.300   2.311   2.246   2.238   1.936   2.060   1.887   1.670
   187.50    2.012   1.579   1.707   1.542   1.874   1.734   1.731   1.571   1.706   1.894   1.667   1.802   1.569   1.607   1.662   2.088   2.064   2.593   2.221   2.056   1.971   1.780   1.756   1.610   1.395
   175.00    1.896   2.006   2.100   1.935   1.805   2.003   1.950   1.595   1.755   1.752   1.828   1.608   1.802   1.658   1.974   2.216   2.534   2.615   2.347   2.139   2.029   1.868   1.732   1.570   1.574
   162.50    1.847   2.129   2.164   1.761   1.978   1.714   1.937   1.949   1.623   1.711   1.634   1.695   1.809   2.166   2.334   2.099   2.314   2.490   2.080   1.977   1.952   2.075   1.890   1.584   1.583
   150.00    1.981   2.269   2.032   1.848   1.802   2.024   1.772   1.894   1.460   1.343   1.903   1.779   2.143   2.102   2.351   2.835   2.000   2.224   2.156   2.025   1.711   1.938   2.009   1.779   1.325
   137.50    2.044   2.226   2.214   1.900   1.420   1.905   1.717   1.502   1.406   1.495   1.915   1.722   1.973   1.994   2.391   2.679   2.389   1.905   2.303   2.006   2.049   2.158   1.542   1.341   1.748
   125.00    2.065   1.850   1.631   1.472   1.432   1.586   1.616   1.591   1.659   1.667   1.746   1.957   2.435   2.272   2.585   2.285   2.469   2.545   2.321   2.293   2.222   1.917   1.735   1.331   1.487
   112.50    2.257   2.004   1.666   1.362   1.398   1.614   1.395   1.671   1.907   1.919   2.051   2.217   2.343   2.311   2.572   2.119   2.197   2.315   2.296   2.146   1.719   1.931   1.568   1.331   1.464
   100.00    2.053   2.159   1.897   1.572   1.572   1.557   1.609   1.553   1.915   1.953   2.207   2.379   2.728   2.671   2.471   2.155   2.024   2.038   2.486   2.092   1.936   1.727   1.778   1.584   1.720
    87.50    1.850   2.040   1.939   1.684   1.536   1.525   1.427   1.470   2.074   1.931   1.835   2.332   2.170   2.343   2.290   1.809   2.317   2.638   2.284   2.040   1.736   1.753   1.767   1.867   1.890
    75.00    1.721   2.077   2.177   2.150   1.864   1.689   1.610   1.511   1.900   2.034   1.948   2.294   2.118   2.021   2.104   2.116   2.259   2.433   2.117   2.210   1.929   2.012   1.573   1.730   1.719
    62.50    1.903   1.928   2.035   1.960   1.962   1.839   1.657   1.474   1.710   1.562   1.905   2.051   1.771   1.693   2.286   2.478   2.374   2.819   2.428   2.268   2.214   1.919   1.911   1.863   1.574
    50.00    1.583   1.700   1.686   1.950   1.762   1.830   1.859   2.319   1.755   1.736   1.812   1.921   1.609   1.992   2.118   2.234   2.594   2.418   2.375   1.932   1.918   1.806   1.858   1.966   2.097
    37.50    1.879   1.751   1.913   1.888   1.950   2.085   2.212   2.141   2.085   1.519   1.546   1.746   1.738   1.833   1.856   1.817   2.072   2.287   2.085   1.980   1.642   1.638   1.897   1.737   1.970
    25.00    1.966   1.740   1.638   1.643   1.854   1.880   2.074   1.963   2.059   1.813   1.496   1.712   1.783   1.982   1.517   1.624   1.910   2.254   1.882   1.693   1.413   1.290   1.371   1.740   1.643
    12.50    1.792   1.748   1.727   1.478   1.784   2.087   2.143   2.044   1.714   1.614   1.658   1.826   1.744   1.845   1.680   1.916   2.022   2.228   2.050   2.244   1.859   1.874   1.752   1.391   1.879
     0.00    1.841   1.543   1.530   1.538   1.418   1.745   2.081   1.879   2.062   1.834   1.699   1.779   2.014   1.564   1.803   2.178   2.326   2.200   2.237   2.497   2.478   2.375   1.908   1.945   2.104

   Height   Standard deviation at grid points for the v component:
   300.00    1.656   1.656   1.656   1.656   1.656   1.656   1.656   1.656   1.656   1.656   1.656   1.656   1.656   1.656   1.656   1.656   1.656   1.656   1.656   1.656   1.656   1.656   1.656   1.656   1.656
   287.50    1.656   1.656   1.656   1.656   1.656   1.656   1.656   1.656   1.656   1.656   1.656   1.656   1.656   1.656   1.656   1.656   1.656   1.656   1.656   1.656   1.656   1.656   1.656   1.656   1.656
   275.00    1.656   1.656   1.656   1.656   1.656   1.656   1.656   1.656   1.656   1.656   1.656   1.656   1.656   1.656   1.656   1.656   1.656   1.656   1.656   1.656   1.656   1.656   1.656   1.656   1.656
   262.50    1.656   1.656   1.656   1.656   1.656   1.656   1.656   1.656   1.656   1.656   1.656   1.656   1.656   1.656   1.656   1.656   1.656   1.656   1.656   1.656   1.656   1.656   1.656   1.656   1.656
   250.00    1.656   1.656   1.656   1.656   1.656   1.656   1.656   1.656   1.656   1.656   1.656   1.656   1.656   1.656   1.656   1.656   1.656   1.656   1.656   1.656   1.656   1.656   1.656   1.656   1.656
   237.50    1.656   1.656   1.656   1.656   1.656   1.656   1.656   1.656   1.656   1.656   1.656   1.656   1.656   1.656   1.656   1.656   1.656   1.656   1.656   1.656   1.656   1.656   1.656   1.656   1.656
   225.00    1.656   1.656   1.656   1.656   1.656   1.656   1.656   1.656   1.656   1.656   1.656   1.656   1.656   1.656   1.656   1.656   1.656   1.656   1.656   1.656   1.656   1.656   1.656   1.656   1.656
   212.50    1.656   1.656   1.656   1.656   1.656   1.656   1.656   1.656   1.656   1.656   1.656   1.656   1.656   1.656   1.656   1.656   1.656   1.656   1.656   1.656   1.656   1.656   1.656   1.656   1.656
   200.00    1.656   1.656   1.656   1.656   1.656   1.656   1.656   1.656   1.656   1.656   1.656   1.656   1.656   1.656   1.656   1.656   1.656   1.656   1.656   1.656   1.656   1.656   1.656   1.656   1.656
   187.50    1.656   1.656   1.656   1.656   1.656   1.656   1.656   1.656   1.656   1.656   1.656   1.656   1.656   1.656   1.656   1.656   1.656   1.656   1.656   1.656   1.656   1.656   1.656   1.656   1.656
   175.00    1.656   1.656   1.656   1.656   1.656   1.656   1.656   1.656   1.656   1.656   1.656   1.656   1.656   1.656   1.656   1.656   1.656   1.656   1.656   1.656   1.656   1.656   1.656   1.656   1.656
   162.50    1.656   1.656   1.656   1.656   1.656   1.656   1.656   1.656   1.656   1.656   1.656   1.656   1.656   1.656   1.656   1.656   1.656   1.656   1.656   1.656   1.656   1.656   1.656   1.656   1.656
   150.00    1.656   1.656   1.656   1.656   1.656   1.656   1.656   1.656   1.656   1.656   1.656   1.656   1.656   1.656   1.656   1.656   1.656   1.656   1.656   1.656   1.656   1.656   1.656   1.656   1.656
   137.50    1.656   1.656   1.656   1.656   1.656   1.656   1.656   1.656   1.656   1.656   1.656   1.656   1.656   1.656   1.656   1.656   1.656   1.656   1.656   1.656   1.656   1.656   1.656   1.656   1.656
   125.00    1.656   1.656   1.656   1.656   1.656   1.656   1.656   1.656   1.656   1.656   1.656   1.656   1.656   1.656   1.656   1.656   1.656   1.656   1.656   1.656   1.656   1.656   1.656   1.656   1.656
   112.50    1.656   1.656   1.656   1.656   1.656   1.656   1.656   1.656   1.656   1.656   1.656   1.656   1.656   1.656   1.656   1.656   1.656   1.656   1.656   1.656   1.656   1.656   1.656   1.656   1.656
   100.00    1.656   1.656   1.656   1.656   1.656   1.656   1.656   1.656   1.656   1.656   1.656   1.656   1.656   1.656   1.656   1.656   1.656   1.656   1.656   1.656   1.656   1.656   1.656   1.656   1.656
    87.50    1.656   1.656   1.656   1.656   1.656   1.656   1.656   1.656   1.656   1.656   1.656   1.656   1.656   1.656   1.656   1.656   1.656   1.656   1.656   1.656   1.656   1.656   1.656   1.656   1.656
    75.00    1.656   1.656   1.656   1.656   1.656   1.656   1.656   1.656   1.656   1.656   1.656   1.656   1.656   1.656   1.656   1.656   1.656   1.656   1.656   1.656   1.656   1.656   1.656   1.656   1.656
    62.50    1.656   1.656   1.656   1.656   1.656   1.656   1.656   1.656   1.656   1.656   1.656   1.656   1.656   1.656   1.656   1.656   1.656   1.656   1.656   1.656   1.656   1.656   1.656   1.656   1.656
    50.00    1.656   1.656   1.656   1.656   1.656   1.656   1.656   1.656   1.656   1.656   1.656   1.656   1.656   1.656   1.656   1.656   1.656   1.656   1.656   1.656   1.656   1.656   1.656   1.656   1.656
    37.50    1.656   1.656   1.656   1.656   1.656   1.656   1.656   1.656   1.656   1.656   1.656   1.656   1.656   1.656   1.656   1.656   1.656   1.656   1.656   1.656   1.656   1.656   1.656   1.656   1.656
    25.00    1.656   1.656   1.656   1.656   1.656   1.656   1.656   1.656   1.656   1.656   1.656   1.656   1.656   1.656   1.656   1.656   1.656   1.656   1.656   1.656   1.656   1.656   1.656   1.656   1.656
    12.50    1.656   1.656   1.656   1.656   1.656   1.656   1.656   1.656   1.656   1.656   1.656   1.656   1.656   1.656   1.656   1.656   1.656   1.656   1.656   1.656   1.656   1.656   1.656   1.656   1.656
     0.00    1.656   1.656   1.656   1.656   1.656   1.656   1.656   1.656   1.656   1.656   1.656   1.656   1.656   1.656   1.656   1.656   1.656   1.656   1.656   1.656   1.656   1.656   1.656   1.656   1.656

   Height   Standard deviation at grid points for the w component:
   300.00    1.081   1.081   1.081   1.081   1.081   1.081   1.081   1.081   1.081   1.081   1.081   1.081   1.081   1.081   1.081   1.081   1.081   1.081   1.081   1.081   1.081   1.081   1.081   1.081   1.081
   287.50    1.081   1.081   1.081   1.081   1.081   1.081   1.081   1.081   1.081   1.081   1.081   1.081   1.081   1.081   1.081   1.081   1.081   1.081   1.081   1.081   1.081   1.081   1.081   1.081   1.081
   275.00    1.081   1.081   1.081   1.081   1.081   1.081   1.081   1.081   1.081   1.081   1.081   1.081   1.081   1.081   1.081   1.081   1.081   1.081   1.081   1.081   1.081   1.081   1.081   1.081   1.081
   262.50    1.081   1.081   1.081   1.081   1.081   1.081   1.081   1.081   1.081   1.081   1.081   1.081   1.081   1.081   1.081   1.081   1.081   1.081   1.081   1.081   1.081   1.081   1.081   1.081   1.081
   250.00    1.081   1.081   1.081   1.081   1.081   1.081   1.081   1.081   1.081   1.081   1.081   1.081   1.081   1.081   1.081   1.081   1.081   1.081   1.081   1.081   1.081   1.081   1.081   1.081   1.081
   237.50    1.081   1.081   1.081   1.081   1.081   1.081   1.081   1.081   1.081   1.081   1.081   1.081   1.081   1.081   1.081   1.081   1.081   1.081   1.081   1.081   1.081   1.081   1.081   1.081   1.081
   225.00    1.081   1.081   1.081   1.081   1.081   1.081   1.081   1.081   1.081   1.081   1.081   1.081   1.081   1.081   1.081   1.081   1.081   1.081   1.081   1.081   1.081   1.081   1.081   1.081   1.081
   212.50    1.081   1.081   1.081   1.081   1.081   1.081   1.081   1.081   1.081   1.081   1.081   1.081   1.081   1.081   1.081   1.081   1.081   1.081   1.081   1.081   1.081   1.081   1.081   1.081   1.081
   200.00    1.081   1.081   1.081   1.081   1.081   1.081   1.081   1.081   1.081   1.081   1.081   1.081   1.081   1.081   1.081   1.081   1.081   1.081   1.081   1.081   1.081   1.081   1.081   1.081   1.081
   187.50    1.081   1.081   1.081   1.081   1.081   1.081   1.081   1.081   1.081   1.081   1.081   1.081   1.081   1.081   1.081   1.081   1.081   1.081   1.081   1.081   1.081   1.081   1.081   1.081   1.081
   175.00    1.081   1.081   1.081   1.081   1.081   1.081   1.081   1.081   1.081   1.081   1.081   1.081   1.081   1.081   1.081   1.081   1.081   1.081   1.081   1.081   1.081   1.081   1.081   1.081   1.081
   162.50    1.081   1.081   1.081   1.081   1.081   1.081   1.081   1.081   1.081   1.081   1.081   1.081   1.081   1.081   1.081   1.081   1.081   1.081   1.081   1.081   1.081   1.081   1.081   1.081   1.081
   150.00    1.081   1.081   1.081   1.081   1.081   1.081   1.081   1.081   1.081   1.081   1.081   1.081   1.081   1.081   1.081   1.081   1.081   1.081   1.081   1.081   1.081   1.081   1.081   1.081   1.081
   137.50    1.081   1.081   1.081   1.081   1.081   1.081   1.081   1.081   1.081   1.081   1.081   1.081   1.081   1.081   1.081   1.081   1.081   1.081   1.081   1.081   1.081   1.081   1.081   1.081   1.081
   125.00    1.081   1.081   1.081   1.081   1.081   1.081   1.081   1.081   1.081   1.081   1.081   1.081   1.081   1.081   1.081   1.081   1.081   1.081   1.081   1.081   1.081   1.081   1.081   1.081   1.081
   112.50    1.081   1.081   1.081   1.081   1.081   1.081   1.081   1.081   1.081   1.081   1.081   1.081   1.081   1.081   1.081   1.081   1.081   1.081   1.081   1.081   1.081   1.081   1.081   1.081   1.081
   100.00    1.081   1.081   1.081   1.081   1.081   1.081   1.081   1.081   1.081   1.081   1.081   1.081   1.081   1.081   1.081   1.081   1.081   1.081   1.081   1.081   1.081   1.081   1.081   1.081   1.081
    87.50    1.081   1.081   1.081   1.081   1.081   1.081   1.081   1.081   1.081   1.081   1.081   1.081   1.081   1.081   1.081   1.081   1.081   1.081   1.081   1.081   1.081   1.081   1.081   1.081   1.081
    75.00    1.081   1.081   1.081   1.081   1.081   1.081   1.081   1.081   1.081   1.081   1.081   1.081   1.081   1.081   1.081   1.081   1.081   1.081   1.081   1.081   1.081   1.081   1.081   1.081   1.081
    62.50    1.081   1.081   1.081   1.081   1.081   1.081   1.081   1.081   1.081   1.081   1.081   1.081   1.081   1.081   1.081   1.081   1.081   1.081   1.081   1.081   1.081   1.081   1.081   1.081   1.081
    50.00    1.081   1.081   1.081   1.081   1.081   1.081   1.081   1.081   1.081   1.081   1.081   1.081   1.081   1.081   1.081   1.081   1.081   1.081   1.081   1.081   1.081   1.081   1.081   1.081   1.081
    37.50    1.081   1.081   1.081   1.081   1.081   1.081   1.081   1.081   1.081   1.081   1.081   1.081   1.081   1.081   1.081   1.081   1.081   1.081   1.081   1.081   1.081   1.081   1.081   1.081   1.081
    25.00    1.081   1.081   1.081   1.081   1.081   1.081   1.081   1.081   1.081   1.081   1.081   1.081   1.081   1.081   1.081   1.081   1.081   1.081   1.081   1.081   1.081   1.081   1.081   1.081   1.081
    12.50    1.081   1.081   1.081   1.081   1.081   1.081   1.081   1.081   1.081   1.081   1.081   1.081   1.081   1.081   1.081   1.081   1.081   1.081   1.081   1.081   1.081   1.081   1.081   1.081   1.081
     0.00    1.081   1.081   1.081   1.081   1.081   1.081   1.081   1.081   1.081   1.081   1.081   1.081   1.081   1.081   1.081   1.081   1.081   1.081   1.081   1.081   1.081   1.081   1.081   1.081   1.081

   Mean standard deviation across all grid points:
      u component:    1.873 m/s
      v component:    1.656 m/s
      w component:    1.081 m/s


U-component (X) statistics from the interpolated hub point:

   Mean =  14.0000 m/s
   TI   =  15.3047 %


Processing complete.  183.02 CPU seconds used.
