
This summary file was generated by TurbSim (from OpenFAST-v4.0.3) on 17-Apr-2025 at 15:04:26.


Runtime Options:

 488200390  Random seed #1
    RANLUX  Type of random number generator
         F  Output binary HH turbulence parameters?
         F  Output formatted turbulence parameters?
         F  Output AeroDyn HH files?
         T  Output AeroDyn FF files?
         F  Output BLADED FF files?
         F  Output tower data?
         F  Output HAWC FF files?
         F  Output formatted FF files?
         F  Output coherent turbulence time step file?
 0 -  NONE  IEC turbulence models scaled to exact specified standard deviation


Turbine/Model Specifications:

        25  Vertical grid-point matrix dimension
        25  Horizontal grid-point matrix dimension
     0.050  Time step [seconds]
   100.000  Analysis time [seconds]
   100.000  Usable output time [seconds]
   150.000  Hub height [m]
   299.999  Grid height [m]
   299.999  Grid width [m]
     0.000  Vertical flow angle [degrees]
     0.000  Horizontal flow angle [degrees]


Meteorological Boundary Conditions:

    IECKAI  IEC Kaimal spectral model
         1  IEC standard: IEC 61400-1 Ed. 3: 2005
         B  IEC turbulence characteristic
       NTM  IEC Normal Turbulence Model
       N/A  IEC Extreme Turbulence Model (ETM) "c" parameter [m/s]
       PL   Wind profile type
   150.000  Reference height [m]
    10.000  Reference wind speed [m/s]
       N/A  Jet height [m]
     0.120  Power law exponent
     0.030  Surface roughness length [m]


Non-IEC Meteorological Boundary Conditions:

       N/A  Site latitude [degrees]
       N/A  Gradient Richardson number
       N/A  Friction or shear velocity [m/s]
       N/A  Mixing layer depth [m]
       N/A  Mean hub u'w' Reynolds stress
       N/A  Mean hub u'v' Reynolds stress
       N/A  Mean hub v'w' Reynolds stress


Spatial Coherence Models:

       IEC  u-component coherence model
      NONE  v-component coherence model
      NONE  w-component coherence model
(   12.000, 0.353E-03)  u-component coherence parameters
                   N/A  v-component coherence parameters
                   N/A  w-component coherence parameters
       N/A  Coherence exponent


You have requested that the following file(s) be generated:

   weis_job_NTM_U10.000000_Seed488200390.0.bts (AeroDyn/TurbSim full-field wind file)


Turbulence Simulation Scaling Parameter Summary:

   Turbulence model used                            =  IEC Kaimal
   Turbulence characteristic                        =  B
   IEC turbulence type                              =  Normal Turbulence Model
   IEC standard                                     =  IEC 61400-1 Ed. 3: 2005
   Mean wind speed at hub height                    =   10.000 m/s
   Expected value of turbulence intensity at 15 m/s =   14.000%
   Characteristic value of standard deviation       =    1.834 m/s
   Turbulence scale                                 =   42.000 m
   u-component integral scale                       =  340.200 m
   Coherency scale                                  =  340.200 m
   Characteristic value of hub turbulence intensity =   18.340%
   Gradient Richardson number                       =    0.000

   Wind profile type                                =  Power law
   Power law exponent                               =    0.120
   Mean shear across rotor disk                     =    0.029 (m/s)/m
   Assumed rotor diameter                           =  299.999 m
   Surface roughness length                         =    0.030 m

   Nyquist frequency of turbulent wind field        =   10.000 Hz

   Number of time steps in the FFT                  =     2000
   Number of time steps output                      =     2000
   Number of points simulated                       =      625


Mean Flow Angles:

   Vertical   =   0.0 degrees
   Horizontal =   0.0 degrees

Mean Wind Speed Profile:

   Height    Wind Speed   Horizontal Angle  Vertical Angle  U-comp (X)   V-comp (Y)   W-comp (Z)
     (m)        (m/s)         (degrees)       (degrees)       (m/s)        (m/s)        (m/s)   
   ------    ----------   ----------------  --------------  ----------   ----------   ----------
    300.0       10.87            0.00            0.00         10.87         0.00         0.00
    287.5       10.81            0.00            0.00         10.81         0.00         0.00
    275.0       10.75            0.00            0.00         10.75         0.00         0.00
    262.5       10.69            0.00            0.00         10.69         0.00         0.00
    250.0       10.63            0.00            0.00         10.63         0.00         0.00
    237.5       10.57            0.00            0.00         10.57         0.00         0.00
    225.0       10.50            0.00            0.00         10.50         0.00         0.00
    212.5       10.43            0.00            0.00         10.43         0.00         0.00
    200.0       10.35            0.00            0.00         10.35         0.00         0.00
    187.5       10.27            0.00            0.00         10.27         0.00         0.00
    175.0       10.19            0.00            0.00         10.19         0.00         0.00
    162.5       10.10            0.00            0.00         10.10         0.00         0.00
    150.0       10.00            0.00            0.00         10.00         0.00         0.00
    137.5        9.90            0.00            0.00          9.90         0.00         0.00
    125.0        9.78            0.00            0.00          9.78         0.00         0.00
    112.5        9.66            0.00            0.00          9.66         0.00         0.00
    100.0        9.53            0.00            0.00          9.53         0.00         0.00
     87.5        9.37            0.00            0.00          9.37         0.00         0.00
     75.0        9.20            0.00            0.00          9.20         0.00         0.00
     62.5        9.00            0.00            0.00          9.00         0.00         0.00
     50.0        8.76            0.00            0.00          8.76         0.00         0.00
     37.5        8.47            0.00            0.00          8.47         0.00         0.00
     25.0        8.07            0.00            0.00          8.07         0.00         0.00
     12.5        7.42            0.00            0.00          7.42         0.00         0.00
      0.0        2.21            0.00            0.00          2.21         0.00         0.00


Harvested Random Seeds after Generation of the Random Numbers:

     17421875 K 1
            0 K 2


Hub-Height Simulated Turbulence Statistical Summary:

   Type of Wind        Min (m/s)   Mean (m/s)    Max (m/s)  Sigma (m/s)       TI (%)
   ----------------    ---------   ----------    ---------  -----------       ------
   Longitudinal (u)         6.59        10.00        14.17        1.291       12.910
   Lateral (v)             -4.14         0.00         3.84        1.313       13.128
   Vertical (w)            -2.71         0.00         2.38        0.877        8.768
   U component              6.59        10.00        14.17        1.291       12.910
   V component             -4.14         0.00         3.84        1.313       13.128
   W component             -2.71         0.00         2.38        0.877        8.768
   Horizontal (U&V)         7.08        10.09        14.17        1.242       12.306
   Total                    7.11        10.13        14.22        1.242       12.261

                       Min Reynolds     Mean Reynolds    Max Reynolds    Correlation
   Product             Stress (m/s)^2   Stress (m/s)^2   Stress (m/s)^2  Coefficient
   ----------------    --------------   --------------   --------------  -----------
   u'w'                     -4.512             0.095             5.477         0.084
   u'v'                     -4.787             0.501            11.293         0.295
   v'w'                     -4.376             0.157             7.113         0.136


   Friction Velocity (Ustar)  =      0.309 m/s
   Maximum Instantaneous TKE  =     12.674 (m/s)^2
   Maximum Instantaneous CTKE =      6.491 (m/s)^2


Grid Point Variance Summary:

   Y-coord -150.00 -137.50 -125.00 -112.50 -100.00  -87.50  -75.00  -62.50  -50.00  -37.50  -25.00  -12.50    0.00   12.50   25.00   37.50   50.00   62.50   75.00   87.50  100.00  112.50  125.00  137.50  150.00

   Height   Standard deviation at grid points for the u component:
   300.00    1.443   1.409   1.379   1.366   1.044   0.989   1.228   1.429   1.307   1.276   1.144   1.088   1.213   0.878   0.971   1.179   1.286   1.441   1.533   1.611   1.555   1.655   1.699   1.281   1.396
   287.50    1.395   1.007   1.500   1.502   1.066   1.122   1.058   1.268   1.244   1.237   1.597   1.429   1.416   1.208   1.231   1.364   1.329   1.150   1.445   1.510   1.476   1.363   1.246   1.263   1.261
   275.00    1.284   1.251   1.382   1.298   1.369   1.060   1.176   1.177   1.274   1.799   1.649   1.538   1.717   1.546   1.491   1.490   1.872   1.393   1.592   1.695   1.402   1.078   1.097   1.192   1.056
   262.50    1.645   1.325   1.322   1.126   1.292   1.119   1.053   1.155   1.351   1.560   2.011   1.989   1.797   1.897   1.892   2.095   1.973   1.313   1.442   1.515   1.601   1.122   1.059   1.340   1.350
   250.00    1.477   1.441   1.262   1.154   1.272   1.201   1.504   1.151   1.390   1.726   1.832   1.622   1.709   2.029   1.798   1.985   1.985   1.497   1.528   1.151   1.283   1.258   1.073   1.336   1.296
   237.50    1.374   1.294   1.198   1.159   1.123   1.138   1.305   1.164   1.233   1.565   1.502   1.648   1.749   1.817   1.668   1.891   1.742   1.795   1.093   1.053   1.160   1.121   1.311   1.145   1.323
   225.00    1.292   1.380   1.295   1.288   1.098   1.065   1.185   1.362   1.337   1.427   1.500   1.726   1.434   1.434   1.708   1.332   1.676   1.557   1.170   1.117   1.265   1.243   1.315   1.311   1.468
   212.50    1.216   1.062   1.241   1.291   1.054   1.187   1.484   1.453   1.472   1.550   1.136   1.553   1.471   1.594   1.672   1.386   1.486   1.579   1.620   1.375   1.261   1.411   1.559   1.543   1.502
   200.00    1.518   1.085   1.113   1.022   1.003   1.338   1.474   1.504   1.156   1.357   1.042   1.255   1.479   1.407   1.645   1.649   1.431   1.256   1.164   1.389   1.520   1.460   1.390   1.522   1.207
   187.50    1.352   1.351   0.974   1.071   1.301   1.529   1.243   1.292   1.206   1.256   1.098   1.084   1.372   1.420   1.635   1.286   1.143   1.400   1.664   1.749   1.260   1.317   1.570   1.443   1.326
   175.00    1.171   1.253   1.151   1.212   1.132   1.325   1.246   1.310   1.242   1.035   1.282   1.363   1.165   1.372   1.499   1.332   1.367   1.398   1.319   1.576   1.243   1.217   1.316   1.587   1.429
   162.50    1.251   1.122   1.129   1.406   1.582   1.324   1.077   1.148   0.931   0.922   1.090   1.239   1.140   1.078   1.137   1.238   1.358   1.226   1.606   1.162   1.397   1.628   1.213   1.297   1.336
   150.00    1.235   1.466   1.412   1.453   1.638   1.365   1.290   1.026   1.008   0.987   1.155   1.337   1.291   1.292   1.183   1.209   1.196   1.250   1.128   1.350   1.269   1.520   1.539   1.709   1.414
   137.50    1.259   1.469   1.422   1.592   1.393   1.242   0.988   1.212   1.339   1.394   1.001   1.319   1.353   1.103   1.296   1.328   0.999   0.949   1.209   1.037   1.387   1.202   1.573   1.823   1.646
   125.00    1.013   1.113   1.344   1.381   1.535   1.259   0.959   1.201   1.264   1.636   1.266   1.348   1.572   1.791   1.353   1.174   1.107   1.254   1.173   1.114   1.165   1.213   1.261   1.455   1.249
   112.50    1.080   1.204   1.548   1.677   1.362   1.260   1.300   1.303   1.481   1.523   1.353   1.208   1.317   1.396   1.192   1.232   0.997   1.138   1.177   1.205   0.939   0.986   1.132   1.459   1.431
   100.00    1.328   1.484   1.390   1.651   1.606   1.414   1.441   1.414   1.528   1.316   1.371   1.421   1.340   1.213   1.060   1.026   1.026   1.231   1.348   1.392   1.442   1.016   1.148   1.344   1.436
    87.50    1.176   1.396   1.246   1.332   1.184   1.451   1.455   1.575   1.220   1.293   1.418   1.076   1.271   1.162   1.099   1.217   1.092   1.144   1.251   1.412   1.067   1.305   1.232   1.025   1.440
    75.00    1.513   1.531   1.583   1.197   1.235   1.350   1.618   1.534   1.261   1.242   1.298   1.229   1.304   1.400   1.256   1.256   1.356   1.341   1.073   1.212   1.235   1.361   1.186   1.536   1.630
    62.50    1.438   1.260   1.091   1.165   1.217   1.363   1.207   1.219   1.036   1.120   1.231   1.061   1.079   1.128   1.300   1.395   1.281   1.322   1.238   1.414   1.256   1.155   1.249   1.585   1.831
    50.00    1.092   1.251   1.258   1.112   1.285   1.282   1.246   1.091   1.208   1.452   1.112   1.171   1.150   0.950   1.213   1.192   1.212   1.117   1.348   1.390   1.220   1.348   1.097   1.126   1.338
    37.50    1.050   0.866   1.131   1.304   1.134   1.168   1.059   1.122   0.940   1.276   1.304   1.401   1.529   1.061   1.043   0.930   1.042   1.113   1.406   1.109   1.404   1.393   1.241   1.090   1.098
    25.00    1.076   1.089   1.245   1.312   1.267   1.222   1.270   1.324   1.413   1.611   1.327   1.311   1.487   1.340   1.064   1.124   1.232   1.134   1.301   1.477   1.227   1.455   1.095   1.177   1.407
    12.50    1.363   1.510   1.332   1.359   1.073   1.116   1.345   1.312   1.277   1.512   1.472   1.195   1.292   1.461   1.305   1.308   1.161   1.176   1.341   1.492   1.328   1.273   1.247   1.291   1.545
     0.00    1.415   1.761   1.588   1.173   1.012   1.015   1.431   1.342   1.358   1.377   1.418   1.338   1.276   1.253   1.491   1.061   1.201   1.495   1.311   1.357   1.331   1.443   1.519   1.231   1.359

   Height   Standard deviation at grid points for the v component:
   300.00    1.313   1.313   1.313   1.313   1.313   1.313   1.313   1.313   1.313   1.313   1.313   1.313   1.313   1.313   1.313   1.313   1.313   1.313   1.313   1.313   1.313   1.313   1.313   1.313   1.313
   287.50    1.313   1.313   1.313   1.313   1.313   1.313   1.313   1.313   1.313   1.313   1.313   1.313   1.313   1.313   1.313   1.313   1.313   1.313   1.313   1.313   1.313   1.313   1.313   1.313   1.313
   275.00    1.313   1.313   1.313   1.313   1.313   1.313   1.313   1.313   1.313   1.313   1.313   1.313   1.313   1.313   1.313   1.313   1.313   1.313   1.313   1.313   1.313   1.313   1.313   1.313   1.313
   262.50    1.313   1.313   1.313   1.313   1.313   1.313   1.313   1.313   1.313   1.313   1.313   1.313   1.313   1.313   1.313   1.313   1.313   1.313   1.313   1.313   1.313   1.313   1.313   1.313   1.313
   250.00    1.313   1.313   1.313   1.313   1.313   1.313   1.313   1.313   1.313   1.313   1.313   1.313   1.313   1.313   1.313   1.313   1.313   1.313   1.313   1.313   1.313   1.313   1.313   1.313   1.313
   237.50    1.313   1.313   1.313   1.313   1.313   1.313   1.313   1.313   1.313   1.313   1.313   1.313   1.313   1.313   1.313   1.313   1.313   1.313   1.313   1.313   1.313   1.313   1.313   1.313   1.313
   225.00    1.313   1.313   1.313   1.313   1.313   1.313   1.313   1.313   1.313   1.313   1.313   1.313   1.313   1.313   1.313   1.313   1.313   1.313   1.313   1.313   1.313   1.313   1.313   1.313   1.313
   212.50    1.313   1.313   1.313   1.313   1.313   1.313   1.313   1.313   1.313   1.313   1.313   1.313   1.313   1.313   1.313   1.313   1.313   1.313   1.313   1.313   1.313   1.313   1.313   1.313   1.313
   200.00    1.313   1.313   1.313   1.313   1.313   1.313   1.313   1.313   1.313   1.313   1.313   1.313   1.313   1.313   1.313   1.313   1.313   1.313   1.313   1.313   1.313   1.313   1.313   1.313   1.313
   187.50    1.313   1.313   1.313   1.313   1.313   1.313   1.313   1.313   1.313   1.313   1.313   1.313   1.313   1.313   1.313   1.313   1.313   1.313   1.313   1.313   1.313   1.313   1.313   1.313   1.313
   175.00    1.313   1.313   1.313   1.313   1.313   1.313   1.313   1.313   1.313   1.313   1.313   1.313   1.313   1.313   1.313   1.313   1.313   1.313   1.313   1.313   1.313   1.313   1.313   1.313   1.313
   162.50    1.313   1.313   1.313   1.313   1.313   1.313   1.313   1.313   1.313   1.313   1.313   1.313   1.313   1.313   1.313   1.313   1.313   1.313   1.313   1.313   1.313   1.313   1.313   1.313   1.313
   150.00    1.313   1.313   1.313   1.313   1.313   1.313   1.313   1.313   1.313   1.313   1.313   1.313   1.313   1.313   1.313   1.313   1.313   1.313   1.313   1.313   1.313   1.313   1.313   1.313   1.313
   137.50    1.313   1.313   1.313   1.313   1.313   1.313   1.313   1.313   1.313   1.313   1.313   1.313   1.313   1.313   1.313   1.313   1.313   1.313   1.313   1.313   1.313   1.313   1.313   1.313   1.313
   125.00    1.313   1.313   1.313   1.313   1.313   1.313   1.313   1.313   1.313   1.313   1.313   1.313   1.313   1.313   1.313   1.313   1.313   1.313   1.313   1.313   1.313   1.313   1.313   1.313   1.313
   112.50    1.313   1.313   1.313   1.313   1.313   1.313   1.313   1.313   1.313   1.313   1.313   1.313   1.313   1.313   1.313   1.313   1.313   1.313   1.313   1.313   1.313   1.313   1.313   1.313   1.313
   100.00    1.313   1.313   1.313   1.313   1.313   1.313   1.313   1.313   1.313   1.313   1.313   1.313   1.313   1.313   1.313   1.313   1.313   1.313   1.313   1.313   1.313   1.313   1.313   1.313   1.313
    87.50    1.313   1.313   1.313   1.313   1.313   1.313   1.313   1.313   1.313   1.313   1.313   1.313   1.313   1.313   1.313   1.313   1.313   1.313   1.313   1.313   1.313   1.313   1.313   1.313   1.313
    75.00    1.313   1.313   1.313   1.313   1.313   1.313   1.313   1.313   1.313   1.313   1.313   1.313   1.313   1.313   1.313   1.313   1.313   1.313   1.313   1.313   1.313   1.313   1.313   1.313   1.313
    62.50    1.313   1.313   1.313   1.313   1.313   1.313   1.313   1.313   1.313   1.313   1.313   1.313   1.313   1.313   1.313   1.313   1.313   1.313   1.313   1.313   1.313   1.313   1.313   1.313   1.313
    50.00    1.313   1.313   1.313   1.313   1.313   1.313   1.313   1.313   1.313   1.313   1.313   1.313   1.313   1.313   1.313   1.313   1.313   1.313   1.313   1.313   1.313   1.313   1.313   1.313   1.313
    37.50    1.313   1.313   1.313   1.313   1.313   1.313   1.313   1.313   1.313   1.313   1.313   1.313   1.313   1.313   1.313   1.313   1.313   1.313   1.313   1.313   1.313   1.313   1.313   1.313   1.313
    25.00    1.313   1.313   1.313   1.313   1.313   1.313   1.313   1.313   1.313   1.313   1.313   1.313   1.313   1.313   1.313   1.313   1.313   1.313   1.313   1.313   1.313   1.313   1.313   1.313   1.313
    12.50    1.313   1.313   1.313   1.313   1.313   1.313   1.313   1.313   1.313   1.313   1.313   1.313   1.313   1.313   1.313   1.313   1.313   1.313   1.313   1.313   1.313   1.313   1.313   1.313   1.313
     0.00    1.313   1.313   1.313   1.313   1.313   1.313   1.313   1.313   1.313   1.313   1.313   1.313   1.313   1.313   1.313   1.313   1.313   1.313   1.313   1.313   1.313   1.313   1.313   1.313   1.313

   Height   Standard deviation at grid points for the w component:
   300.00    0.877   0.877   0.877   0.877   0.877   0.877   0.877   0.877   0.877   0.877   0.877   0.877   0.877   0.877   0.877   0.877   0.877   0.877   0.877   0.877   0.877   0.877   0.877   0.877   0.877
   287.50    0.877   0.877   0.877   0.877   0.877   0.877   0.877   0.877   0.877   0.877   0.877   0.877   0.877   0.877   0.877   0.877   0.877   0.877   0.877   0.877   0.877   0.877   0.877   0.877   0.877
   275.00    0.877   0.877   0.877   0.877   0.877   0.877   0.877   0.877   0.877   0.877   0.877   0.877   0.877   0.877   0.877   0.877   0.877   0.877   0.877   0.877   0.877   0.877   0.877   0.877   0.877
   262.50    0.877   0.877   0.877   0.877   0.877   0.877   0.877   0.877   0.877   0.877   0.877   0.877   0.877   0.877   0.877   0.877   0.877   0.877   0.877   0.877   0.877   0.877   0.877   0.877   0.877
   250.00    0.877   0.877   0.877   0.877   0.877   0.877   0.877   0.877   0.877   0.877   0.877   0.877   0.877   0.877   0.877   0.877   0.877   0.877   0.877   0.877   0.877   0.877   0.877   0.877   0.877
   237.50    0.877   0.877   0.877   0.877   0.877   0.877   0.877   0.877   0.877   0.877   0.877   0.877   0.877   0.877   0.877   0.877   0.877   0.877   0.877   0.877   0.877   0.877   0.877   0.877   0.877
   225.00    0.877   0.877   0.877   0.877   0.877   0.877   0.877   0.877   0.877   0.877   0.877   0.877   0.877   0.877   0.877   0.877   0.877   0.877   0.877   0.877   0.877   0.877   0.877   0.877   0.877
   212.50    0.877   0.877   0.877   0.877   0.877   0.877   0.877   0.877   0.877   0.877   0.877   0.877   0.877   0.877   0.877   0.877   0.877   0.877   0.877   0.877   0.877   0.877   0.877   0.877   0.877
   200.00    0.877   0.877   0.877   0.877   0.877   0.877   0.877   0.877   0.877   0.877   0.877   0.877   0.877   0.877   0.877   0.877   0.877   0.877   0.877   0.877   0.877   0.877   0.877   0.877   0.877
   187.50    0.877   0.877   0.877   0.877   0.877   0.877   0.877   0.877   0.877   0.877   0.877   0.877   0.877   0.877   0.877   0.877   0.877   0.877   0.877   0.877   0.877   0.877   0.877   0.877   0.877
   175.00    0.877   0.877   0.877   0.877   0.877   0.877   0.877   0.877   0.877   0.877   0.877   0.877   0.877   0.877   0.877   0.877   0.877   0.877   0.877   0.877   0.877   0.877   0.877   0.877   0.877
   162.50    0.877   0.877   0.877   0.877   0.877   0.877   0.877   0.877   0.877   0.877   0.877   0.877   0.877   0.877   0.877   0.877   0.877   0.877   0.877   0.877   0.877   0.877   0.877   0.877   0.877
   150.00    0.877   0.877   0.877   0.877   0.877   0.877   0.877   0.877   0.877   0.877   0.877   0.877   0.877   0.877   0.877   0.877   0.877   0.877   0.877   0.877   0.877   0.877   0.877   0.877   0.877
   137.50    0.877   0.877   0.877   0.877   0.877   0.877   0.877   0.877   0.877   0.877   0.877   0.877   0.877   0.877   0.877   0.877   0.877   0.877   0.877   0.877   0.877   0.877   0.877   0.877   0.877
   125.00    0.877   0.877   0.877   0.877   0.877   0.877   0.877   0.877   0.877   0.877   0.877   0.877   0.877   0.877   0.877   0.877   0.877   0.877   0.877   0.877   0.877   0.877   0.877   0.877   0.877
   112.50    0.877   0.877   0.877   0.877   0.877   0.877   0.877   0.877   0.877   0.877   0.877   0.877   0.877   0.877   0.877   0.877   0.877   0.877   0.877   0.877   0.877   0.877   0.877   0.877   0.877
   100.00    0.877   0.877   0.877   0.877   0.877   0.877   0.877   0.877   0.877   0.877   0.877   0.877   0.877   0.877   0.877   0.877   0.877   0.877   0.877   0.877   0.877   0.877   0.877   0.877   0.877
    87.50    0.877   0.877   0.877   0.877   0.877   0.877   0.877   0.877   0.877   0.877   0.877   0.877   0.877   0.877   0.877   0.877   0.877   0.877   0.877   0.877   0.877   0.877   0.877   0.877   0.877
    75.00    0.877   0.877   0.877   0.877   0.877   0.877   0.877   0.877   0.877   0.877   0.877   0.877   0.877   0.877   0.877   0.877   0.877   0.877   0.877   0.877   0.877   0.877   0.877   0.877   0.877
    62.50    0.877   0.877   0.877   0.877   0.877   0.877   0.877   0.877   0.877   0.877   0.877   0.877   0.877   0.877   0.877   0.877   0.877   0.877   0.877   0.877   0.877   0.877   0.877   0.877   0.877
    50.00    0.877   0.877   0.877   0.877   0.877   0.877   0.877   0.877   0.877   0.877   0.877   0.877   0.877   0.877   0.877   0.877   0.877   0.877   0.877   0.877   0.877   0.877   0.877   0.877   0.877
    37.50    0.877   0.877   0.877   0.877   0.877   0.877   0.877   0.877   0.877   0.877   0.877   0.877   0.877   0.877   0.877   0.877   0.877   0.877   0.877   0.877   0.877   0.877   0.877   0.877   0.877
    25.00    0.877   0.877   0.877   0.877   0.877   0.877   0.877   0.877   0.877   0.877   0.877   0.877   0.877   0.877   0.877   0.877   0.877   0.877   0.877   0.877   0.877   0.877   0.877   0.877   0.877
    12.50    0.877   0.877   0.877   0.877   0.877   0.877   0.877   0.877   0.877   0.877   0.877   0.877   0.877   0.877   0.877   0.877   0.877   0.877   0.877   0.877   0.877   0.877   0.877   0.877   0.877
     0.00    0.877   0.877   0.877   0.877   0.877   0.877   0.877   0.877   0.877   0.877   0.877   0.877   0.877   0.877   0.877   0.877   0.877   0.877   0.877   0.877   0.877   0.877   0.877   0.877   0.877

   Mean standard deviation across all grid points:
      u component:    1.322 m/s
      v component:    1.313 m/s
      w component:    0.877 m/s


U-component (X) statistics from the interpolated hub point:

   Mean =  10.0000 m/s
   TI   =  12.9100 %


Processing complete.  169.8 CPU seconds used.
