
This summary file was generated by TurbSim (from OpenFAST-v4.0.3) on 17-Apr-2025 at 15:04:34.


Runtime Options:

1693606511  Random seed #1
    RANLUX  Type of random number generator
         F  Output binary HH turbulence parameters?
         F  Output formatted turbulence parameters?
         F  Output AeroDyn HH files?
         T  Output AeroDyn FF files?
         F  Output BLADED FF files?
         F  Output tower data?
         F  Output HAWC FF files?
         F  Output formatted FF files?
         F  Output coherent turbulence time step file?
 0 -  NONE  IEC turbulence models scaled to exact specified standard deviation


Turbine/Model Specifications:

        25  Vertical grid-point matrix dimension
        25  Horizontal grid-point matrix dimension
     0.050  Time step [seconds]
   100.000  Analysis time [seconds]
   100.000  Usable output time [seconds]
   150.000  Hub height [m]
   299.999  Grid height [m]
   299.999  Grid width [m]
     0.000  Vertical flow angle [degrees]
     0.000  Horizontal flow angle [degrees]


Meteorological Boundary Conditions:

    IECKAI  IEC Kaimal spectral model
         1  IEC standard: IEC 61400-1 Ed. 3: 2005
         B  IEC turbulence characteristic
       NTM  IEC Normal Turbulence Model
       N/A  IEC Extreme Turbulence Model (ETM) "c" parameter [m/s]
       PL   Wind profile type
   150.000  Reference height [m]
    12.000  Reference wind speed [m/s]
       N/A  Jet height [m]
     0.120  Power law exponent
     0.030  Surface roughness length [m]


Non-IEC Meteorological Boundary Conditions:

       N/A  Site latitude [degrees]
       N/A  Gradient Richardson number
       N/A  Friction or shear velocity [m/s]
       N/A  Mixing layer depth [m]
       N/A  Mean hub u'w' Reynolds stress
       N/A  Mean hub u'v' Reynolds stress
       N/A  Mean hub v'w' Reynolds stress


Spatial Coherence Models:

       IEC  u-component coherence model
      NONE  v-component coherence model
      NONE  w-component coherence model
(   12.000, 0.353E-03)  u-component coherence parameters
                   N/A  v-component coherence parameters
                   N/A  w-component coherence parameters
       N/A  Coherence exponent


You have requested that the following file(s) be generated:

   weis_job_NTM_U12.000000_Seed1693606511.0.bts (AeroDyn/TurbSim full-field wind file)


Turbulence Simulation Scaling Parameter Summary:

   Turbulence model used                            =  IEC Kaimal
   Turbulence characteristic                        =  B
   IEC turbulence type                              =  Normal Turbulence Model
   IEC standard                                     =  IEC 61400-1 Ed. 3: 2005
   Mean wind speed at hub height                    =   12.000 m/s
   Expected value of turbulence intensity at 15 m/s =   14.000%
   Characteristic value of standard deviation       =    2.044 m/s
   Turbulence scale                                 =   42.000 m
   u-component integral scale                       =  340.200 m
   Coherency scale                                  =  340.200 m
   Characteristic value of hub turbulence intensity =   17.033%
   Gradient Richardson number                       =    0.000

   Wind profile type                                =  Power law
   Power law exponent                               =    0.120
   Mean shear across rotor disk                     =    0.035 (m/s)/m
   Assumed rotor diameter                           =  299.999 m
   Surface roughness length                         =    0.030 m

   Nyquist frequency of turbulent wind field        =   10.000 Hz

   Number of time steps in the FFT                  =     2000
   Number of time steps output                      =     2000
   Number of points simulated                       =      625


Mean Flow Angles:

   Vertical   =   0.0 degrees
   Horizontal =   0.0 degrees

Mean Wind Speed Profile:

   Height    Wind Speed   Horizontal Angle  Vertical Angle  U-comp (X)   V-comp (Y)   W-comp (Z)
     (m)        (m/s)         (degrees)       (degrees)       (m/s)        (m/s)        (m/s)   
   ------    ----------   ----------------  --------------  ----------   ----------   ----------
    300.0       13.04            0.00            0.00         13.04         0.00         0.00
    287.5       12.97            0.00            0.00         12.97         0.00         0.00
    275.0       12.91            0.00            0.00         12.91         0.00         0.00
    262.5       12.83            0.00            0.00         12.83         0.00         0.00
    250.0       12.76            0.00            0.00         12.76         0.00         0.00
    237.5       12.68            0.00            0.00         12.68         0.00         0.00
    225.0       12.60            0.00            0.00         12.60         0.00         0.00
    212.5       12.51            0.00            0.00         12.51         0.00         0.00
    200.0       12.42            0.00            0.00         12.42         0.00         0.00
    187.5       12.33            0.00            0.00         12.33         0.00         0.00
    175.0       12.22            0.00            0.00         12.22         0.00         0.00
    162.5       12.12            0.00            0.00         12.12         0.00         0.00
    150.0       12.00            0.00            0.00         12.00         0.00         0.00
    137.5       11.88            0.00            0.00         11.88         0.00         0.00
    125.0       11.74            0.00            0.00         11.74         0.00         0.00
    112.5       11.59            0.00            0.00         11.59         0.00         0.00
    100.0       11.43            0.00            0.00         11.43         0.00         0.00
     87.5       11.25            0.00            0.00         11.25         0.00         0.00
     75.0       11.04            0.00            0.00         11.04         0.00         0.00
     62.5       10.80            0.00            0.00         10.80         0.00         0.00
     50.0       10.52            0.00            0.00         10.52         0.00         0.00
     37.5       10.16            0.00            0.00         10.16         0.00         0.00
     25.0        9.68            0.00            0.00          9.68         0.00         0.00
     12.5        8.91            0.00            0.00          8.91         0.00         0.00
      0.0        2.65            0.00            0.00          2.65         0.00         0.00


Harvested Random Seeds after Generation of the Random Numbers:

     17421875 K 1
            0 K 2


Hub-Height Simulated Turbulence Statistical Summary:

   Type of Wind        Min (m/s)   Mean (m/s)    Max (m/s)  Sigma (m/s)       TI (%)
   ----------------    ---------   ----------    ---------  -----------       ------
   Longitudinal (u)         7.95        12.00        15.77        1.468       12.235
   Lateral (v)             -4.38         0.00         4.06        1.485       12.376
   Vertical (w)            -2.75         0.00         3.15        0.979        8.162
   U component              7.95        12.00        15.77        1.468       12.235
   V component             -4.38         0.00         4.06        1.485       12.376
   W component             -2.75         0.00         3.15        0.979        8.162
   Horizontal (U&V)         8.08        12.09        15.85        1.484       12.275
   Total                    8.10        12.13        15.87        1.484       12.236

                       Min Reynolds     Mean Reynolds    Max Reynolds    Correlation
   Product             Stress (m/s)^2   Stress (m/s)^2   Stress (m/s)^2  Coefficient
   ----------------    --------------   --------------   --------------  -----------
   u'w'                     -7.978            -0.164             4.448        -0.114
   u'v'                    -10.922            -0.450             7.579        -0.207
   v'w'                    -10.799            -0.115             5.885        -0.079


   Friction Velocity (Ustar)  =      0.405 m/s
   Maximum Instantaneous TKE  =     12.318 (m/s)^2
   Maximum Instantaneous CTKE =      6.173 (m/s)^2


Grid Point Variance Summary:

   Y-coord -150.00 -137.50 -125.00 -112.50 -100.00  -87.50  -75.00  -62.50  -50.00  -37.50  -25.00  -12.50    0.00   12.50   25.00   37.50   50.00   62.50   75.00   87.50  100.00  112.50  125.00  137.50  150.00

   Height   Standard deviation at grid points for the u component:
   300.00    1.358   1.345   1.594   1.760   1.493   1.548   1.411   1.697   1.663   1.524   1.463   1.468   1.298   1.460   1.210   1.390   1.476   1.700   1.584   1.429   1.406   1.490   1.255   1.669   1.654
   287.50    1.476   1.184   1.150   1.489   1.730   1.653   1.524   1.582   1.666   1.271   1.264   1.187   1.102   1.094   1.176   1.165   1.716   1.687   1.367   1.371   1.406   1.259   1.325   1.556   1.508
   275.00    1.317   1.606   1.315   1.139   1.191   1.126   1.676   1.935   1.718   1.451   1.092   1.169   1.432   1.358   1.246   1.592   1.730   1.872   1.806   1.515   1.314   1.577   1.132   1.413   1.435
   262.50    1.551   1.471   1.333   1.394   1.259   1.342   1.751   1.864   1.358   1.406   1.703   1.455   1.401   1.500   1.524   1.475   1.447   1.709   1.527   1.572   1.877   1.713   1.377   1.351   1.524
   250.00    1.458   1.285   1.582   1.642   1.608   1.122   1.538   1.545   1.414   1.495   1.642   1.953   1.541   1.459   1.548   1.187   1.552   1.623   1.430   1.371   1.786   1.497   1.566   1.535   1.638
   237.50    1.443   1.671   1.492   1.461   1.177   1.148   1.451   1.194   1.599   1.540   1.635   1.767   1.726   1.358   1.262   1.345   1.619   1.599   1.573   1.763   1.823   1.705   1.344   1.271   1.517
   225.00    1.424   1.279   1.331   1.387   1.223   1.262   1.315   1.523   1.415   1.573   1.257   1.769   1.653   1.430   1.574   1.690   1.626   1.814   1.871   1.421   1.339   1.463   1.082   1.413   1.453
   212.50    1.460   1.322   1.166   1.156   1.280   1.269   1.375   1.363   1.396   1.730   1.461   1.839   1.468   1.520   1.462   1.340   1.549   1.534   1.364   1.166   1.079   1.198   1.363   1.314   1.531
   200.00    1.615   1.403   1.191   1.421   1.068   1.313   1.622   1.924   2.221   2.055   2.025   1.983   1.485   1.395   1.438   1.500   1.546   1.413   1.403   1.340   1.465   1.511   1.403   1.409   1.606
   187.50    1.715   1.462   1.233   1.296   1.102   1.299   1.655   1.808   1.798   1.553   1.905   1.840   1.517   1.159   1.445   1.418   1.453   1.675   1.441   1.575   1.897   1.310   1.409   1.430   1.661
   175.00    1.473   1.644   1.647   1.470   1.364   1.210   1.601   1.515   1.442   1.508   1.571   1.634   1.631   1.644   1.319   1.318   1.487   1.793   1.971   1.636   1.890   1.425   1.553   1.460   1.260
   162.50    1.591   1.632   1.627   1.747   1.564   1.394   1.535   1.446   1.160   1.039   1.271   1.661   1.479   1.333   1.627   1.709   1.283   1.748   2.034   2.137   1.781   1.989   1.978   1.665   1.461
   150.00    1.655   1.448   1.501   1.862   1.891   1.241   1.221   1.194   1.175   1.222   1.423   1.645   1.468   1.281   1.507   1.625   1.496   1.591   1.813   2.008   1.937   1.942   1.490   1.686   1.678
   137.50    1.676   1.546   1.454   1.853   1.396   1.194   1.199   1.161   1.228   1.373   1.675   1.660   1.412   1.274   1.471   1.691   1.581   1.534   1.723   1.775   1.731   1.877   1.613   1.655   1.403
   125.00    1.628   1.440   1.680   1.837   2.040   1.615   1.518   1.397   1.447   1.414   1.456   1.615   1.440   1.158   1.361   1.514   1.338   1.368   1.461   1.458   1.646   1.972   1.829   1.810   1.968
   112.50    1.489   1.599   1.697   2.056   2.112   1.841   1.711   1.343   1.579   1.422   1.472   1.495   1.577   1.398   1.318   1.409   1.210   1.176   1.615   1.827   1.721   1.740   1.741   2.035   2.306
   100.00    1.681   1.704   1.381   1.792   1.894   1.879   1.852   1.587   1.519   1.769   1.610   1.371   1.463   1.362   1.341   1.248   1.332   1.292   1.616   1.966   1.491   2.028   1.774   1.739   1.983
    87.50    1.509   1.368   1.664   1.541   1.945   1.695   1.571   1.251   1.584   1.624   1.732   1.645   1.502   1.473   1.507   1.126   1.220   1.308   1.436   1.453   1.710   1.925   1.675   1.828   1.945
    75.00    1.070   1.388   1.633   1.750   1.784   1.739   1.304   1.164   1.502   1.473   1.675   1.377   1.427   1.603   1.544   1.259   1.156   0.995   1.078   1.372   1.519   1.756   1.476   1.569   1.876
    62.50    1.500   1.277   1.575   1.454   1.517   1.585   1.042   1.442   1.442   1.408   1.449   1.716   1.626   1.744   1.652   1.361   1.448   1.294   1.222   1.230   1.372   1.524   1.675   1.621   1.951
    50.00    1.562   1.576   1.373   1.267   1.138   1.326   1.201   1.184   1.123   1.418   1.318   1.645   1.474   1.548   1.486   1.244   1.159   1.090   1.205   1.050   1.296   1.601   1.398   1.589   1.678
    37.50    1.406   1.223   1.248   1.421   1.343   1.498   1.397   1.435   1.306   1.560   1.331   1.514   1.276   1.416   1.496   1.219   1.167   1.253   1.337   1.214   1.132   1.379   1.275   1.643   1.482
    25.00    1.411   1.483   1.421   1.439   1.387   1.395   1.342   1.310   1.457   1.555   1.530   1.362   1.359   1.439   1.389   1.535   1.571   1.230   1.247   1.294   1.281   1.290   1.319   1.299   1.520
    12.50    1.641   1.598   1.415   1.313   1.314   1.372   1.539   1.354   1.400   1.537   1.607   1.781   1.464   1.328   1.562   1.565   1.480   1.392   1.363   1.320   1.179   1.323   1.094   1.262   1.332
     0.00    1.628   1.795   1.717   1.714   1.335   1.583   1.425   1.532   1.554   1.465   1.215   1.559   1.237   1.411   1.429   1.400   1.504   1.345   1.507   1.479   1.470   1.303   1.266   1.379   1.522

   Height   Standard deviation at grid points for the v component:
   300.00    1.485   1.485   1.485   1.485   1.485   1.485   1.485   1.485   1.485   1.485   1.485   1.485   1.485   1.485   1.485   1.485   1.485   1.485   1.485   1.485   1.485   1.485   1.485   1.485   1.485
   287.50    1.485   1.485   1.485   1.485   1.485   1.485   1.485   1.485   1.485   1.485   1.485   1.485   1.485   1.485   1.485   1.485   1.485   1.485   1.485   1.485   1.485   1.485   1.485   1.485   1.485
   275.00    1.485   1.485   1.485   1.485   1.485   1.485   1.485   1.485   1.485   1.485   1.485   1.485   1.485   1.485   1.485   1.485   1.485   1.485   1.485   1.485   1.485   1.485   1.485   1.485   1.485
   262.50    1.485   1.485   1.485   1.485   1.485   1.485   1.485   1.485   1.485   1.485   1.485   1.485   1.485   1.485   1.485   1.485   1.485   1.485   1.485   1.485   1.485   1.485   1.485   1.485   1.485
   250.00    1.485   1.485   1.485   1.485   1.485   1.485   1.485   1.485   1.485   1.485   1.485   1.485   1.485   1.485   1.485   1.485   1.485   1.485   1.485   1.485   1.485   1.485   1.485   1.485   1.485
   237.50    1.485   1.485   1.485   1.485   1.485   1.485   1.485   1.485   1.485   1.485   1.485   1.485   1.485   1.485   1.485   1.485   1.485   1.485   1.485   1.485   1.485   1.485   1.485   1.485   1.485
   225.00    1.485   1.485   1.485   1.485   1.485   1.485   1.485   1.485   1.485   1.485   1.485   1.485   1.485   1.485   1.485   1.485   1.485   1.485   1.485   1.485   1.485   1.485   1.485   1.485   1.485
   212.50    1.485   1.485   1.485   1.485   1.485   1.485   1.485   1.485   1.485   1.485   1.485   1.485   1.485   1.485   1.485   1.485   1.485   1.485   1.485   1.485   1.485   1.485   1.485   1.485   1.485
   200.00    1.485   1.485   1.485   1.485   1.485   1.485   1.485   1.485   1.485   1.485   1.485   1.485   1.485   1.485   1.485   1.485   1.485   1.485   1.485   1.485   1.485   1.485   1.485   1.485   1.485
   187.50    1.485   1.485   1.485   1.485   1.485   1.485   1.485   1.485   1.485   1.485   1.485   1.485   1.485   1.485   1.485   1.485   1.485   1.485   1.485   1.485   1.485   1.485   1.485   1.485   1.485
   175.00    1.485   1.485   1.485   1.485   1.485   1.485   1.485   1.485   1.485   1.485   1.485   1.485   1.485   1.485   1.485   1.485   1.485   1.485   1.485   1.485   1.485   1.485   1.485   1.485   1.485
   162.50    1.485   1.485   1.485   1.485   1.485   1.485   1.485   1.485   1.485   1.485   1.485   1.485   1.485   1.485   1.485   1.485   1.485   1.485   1.485   1.485   1.485   1.485   1.485   1.485   1.485
   150.00    1.485   1.485   1.485   1.485   1.485   1.485   1.485   1.485   1.485   1.485   1.485   1.485   1.485   1.485   1.485   1.485   1.485   1.485   1.485   1.485   1.485   1.485   1.485   1.485   1.485
   137.50    1.485   1.485   1.485   1.485   1.485   1.485   1.485   1.485   1.485   1.485   1.485   1.485   1.485   1.485   1.485   1.485   1.485   1.485   1.485   1.485   1.485   1.485   1.485   1.485   1.485
   125.00    1.485   1.485   1.485   1.485   1.485   1.485   1.485   1.485   1.485   1.485   1.485   1.485   1.485   1.485   1.485   1.485   1.485   1.485   1.485   1.485   1.485   1.485   1.485   1.485   1.485
   112.50    1.485   1.485   1.485   1.485   1.485   1.485   1.485   1.485   1.485   1.485   1.485   1.485   1.485   1.485   1.485   1.485   1.485   1.485   1.485   1.485   1.485   1.485   1.485   1.485   1.485
   100.00    1.485   1.485   1.485   1.485   1.485   1.485   1.485   1.485   1.485   1.485   1.485   1.485   1.485   1.485   1.485   1.485   1.485   1.485   1.485   1.485   1.485   1.485   1.485   1.485   1.485
    87.50    1.485   1.485   1.485   1.485   1.485   1.485   1.485   1.485   1.485   1.485   1.485   1.485   1.485   1.485   1.485   1.485   1.485   1.485   1.485   1.485   1.485   1.485   1.485   1.485   1.485
    75.00    1.485   1.485   1.485   1.485   1.485   1.485   1.485   1.485   1.485   1.485   1.485   1.485   1.485   1.485   1.485   1.485   1.485   1.485   1.485   1.485   1.485   1.485   1.485   1.485   1.485
    62.50    1.485   1.485   1.485   1.485   1.485   1.485   1.485   1.485   1.485   1.485   1.485   1.485   1.485   1.485   1.485   1.485   1.485   1.485   1.485   1.485   1.485   1.485   1.485   1.485   1.485
    50.00    1.485   1.485   1.485   1.485   1.485   1.485   1.485   1.485   1.485   1.485   1.485   1.485   1.485   1.485   1.485   1.485   1.485   1.485   1.485   1.485   1.485   1.485   1.485   1.485   1.485
    37.50    1.485   1.485   1.485   1.485   1.485   1.485   1.485   1.485   1.485   1.485   1.485   1.485   1.485   1.485   1.485   1.485   1.485   1.485   1.485   1.485   1.485   1.485   1.485   1.485   1.485
    25.00    1.485   1.485   1.485   1.485   1.485   1.485   1.485   1.485   1.485   1.485   1.485   1.485   1.485   1.485   1.485   1.485   1.485   1.485   1.485   1.485   1.485   1.485   1.485   1.485   1.485
    12.50    1.485   1.485   1.485   1.485   1.485   1.485   1.485   1.485   1.485   1.485   1.485   1.485   1.485   1.485   1.485   1.485   1.485   1.485   1.485   1.485   1.485   1.485   1.485   1.485   1.485
     0.00    1.485   1.485   1.485   1.485   1.485   1.485   1.485   1.485   1.485   1.485   1.485   1.485   1.485   1.485   1.485   1.485   1.485   1.485   1.485   1.485   1.485   1.485   1.485   1.485   1.485

   Height   Standard deviation at grid points for the w component:
   300.00    0.979   0.979   0.979   0.979   0.979   0.979   0.979   0.979   0.979   0.979   0.979   0.979   0.979   0.979   0.979   0.979   0.979   0.979   0.979   0.979   0.979   0.979   0.979   0.979   0.979
   287.50    0.979   0.979   0.979   0.979   0.979   0.979   0.979   0.979   0.979   0.979   0.979   0.979   0.979   0.979   0.979   0.979   0.979   0.979   0.979   0.979   0.979   0.979   0.979   0.979   0.979
   275.00    0.979   0.979   0.979   0.979   0.979   0.979   0.979   0.979   0.979   0.979   0.979   0.979   0.979   0.979   0.979   0.979   0.979   0.979   0.979   0.979   0.979   0.979   0.979   0.979   0.979
   262.50    0.979   0.979   0.979   0.979   0.979   0.979   0.979   0.979   0.979   0.979   0.979   0.979   0.979   0.979   0.979   0.979   0.979   0.979   0.979   0.979   0.979   0.979   0.979   0.979   0.979
   250.00    0.979   0.979   0.979   0.979   0.979   0.979   0.979   0.979   0.979   0.979   0.979   0.979   0.979   0.979   0.979   0.979   0.979   0.979   0.979   0.979   0.979   0.979   0.979   0.979   0.979
   237.50    0.979   0.979   0.979   0.979   0.979   0.979   0.979   0.979   0.979   0.979   0.979   0.979   0.979   0.979   0.979   0.979   0.979   0.979   0.979   0.979   0.979   0.979   0.979   0.979   0.979
   225.00    0.979   0.979   0.979   0.979   0.979   0.979   0.979   0.979   0.979   0.979   0.979   0.979   0.979   0.979   0.979   0.979   0.979   0.979   0.979   0.979   0.979   0.979   0.979   0.979   0.979
   212.50    0.979   0.979   0.979   0.979   0.979   0.979   0.979   0.979   0.979   0.979   0.979   0.979   0.979   0.979   0.979   0.979   0.979   0.979   0.979   0.979   0.979   0.979   0.979   0.979   0.979
   200.00    0.979   0.979   0.979   0.979   0.979   0.979   0.979   0.979   0.979   0.979   0.979   0.979   0.979   0.979   0.979   0.979   0.979   0.979   0.979   0.979   0.979   0.979   0.979   0.979   0.979
   187.50    0.979   0.979   0.979   0.979   0.979   0.979   0.979   0.979   0.979   0.979   0.979   0.979   0.979   0.979   0.979   0.979   0.979   0.979   0.979   0.979   0.979   0.979   0.979   0.979   0.979
   175.00    0.979   0.979   0.979   0.979   0.979   0.979   0.979   0.979   0.979   0.979   0.979   0.979   0.979   0.979   0.979   0.979   0.979   0.979   0.979   0.979   0.979   0.979   0.979   0.979   0.979
   162.50    0.979   0.979   0.979   0.979   0.979   0.979   0.979   0.979   0.979   0.979   0.979   0.979   0.979   0.979   0.979   0.979   0.979   0.979   0.979   0.979   0.979   0.979   0.979   0.979   0.979
   150.00    0.979   0.979   0.979   0.979   0.979   0.979   0.979   0.979   0.979   0.979   0.979   0.979   0.979   0.979   0.979   0.979   0.979   0.979   0.979   0.979   0.979   0.979   0.979   0.979   0.979
   137.50    0.979   0.979   0.979   0.979   0.979   0.979   0.979   0.979   0.979   0.979   0.979   0.979   0.979   0.979   0.979   0.979   0.979   0.979   0.979   0.979   0.979   0.979   0.979   0.979   0.979
   125.00    0.979   0.979   0.979   0.979   0.979   0.979   0.979   0.979   0.979   0.979   0.979   0.979   0.979   0.979   0.979   0.979   0.979   0.979   0.979   0.979   0.979   0.979   0.979   0.979   0.979
   112.50    0.979   0.979   0.979   0.979   0.979   0.979   0.979   0.979   0.979   0.979   0.979   0.979   0.979   0.979   0.979   0.979   0.979   0.979   0.979   0.979   0.979   0.979   0.979   0.979   0.979
   100.00    0.979   0.979   0.979   0.979   0.979   0.979   0.979   0.979   0.979   0.979   0.979   0.979   0.979   0.979   0.979   0.979   0.979   0.979   0.979   0.979   0.979   0.979   0.979   0.979   0.979
    87.50    0.979   0.979   0.979   0.979   0.979   0.979   0.979   0.979   0.979   0.979   0.979   0.979   0.979   0.979   0.979   0.979   0.979   0.979   0.979   0.979   0.979   0.979   0.979   0.979   0.979
    75.00    0.979   0.979   0.979   0.979   0.979   0.979   0.979   0.979   0.979   0.979   0.979   0.979   0.979   0.979   0.979   0.979   0.979   0.979   0.979   0.979   0.979   0.979   0.979   0.979   0.979
    62.50    0.979   0.979   0.979   0.979   0.979   0.979   0.979   0.979   0.979   0.979   0.979   0.979   0.979   0.979   0.979   0.979   0.979   0.979   0.979   0.979   0.979   0.979   0.979   0.979   0.979
    50.00    0.979   0.979   0.979   0.979   0.979   0.979   0.979   0.979   0.979   0.979   0.979   0.979   0.979   0.979   0.979   0.979   0.979   0.979   0.979   0.979   0.979   0.979   0.979   0.979   0.979
    37.50    0.979   0.979   0.979   0.979   0.979   0.979   0.979   0.979   0.979   0.979   0.979   0.979   0.979   0.979   0.979   0.979   0.979   0.979   0.979   0.979   0.979   0.979   0.979   0.979   0.979
    25.00    0.979   0.979   0.979   0.979   0.979   0.979   0.979   0.979   0.979   0.979   0.979   0.979   0.979   0.979   0.979   0.979   0.979   0.979   0.979   0.979   0.979   0.979   0.979   0.979   0.979
    12.50    0.979   0.979   0.979   0.979   0.979   0.979   0.979   0.979   0.979   0.979   0.979   0.979   0.979   0.979   0.979   0.979   0.979   0.979   0.979   0.979   0.979   0.979   0.979   0.979   0.979
     0.00    0.979   0.979   0.979   0.979   0.979   0.979   0.979   0.979   0.979   0.979   0.979   0.979   0.979   0.979   0.979   0.979   0.979   0.979   0.979   0.979   0.979   0.979   0.979   0.979   0.979

   Mean standard deviation across all grid points:
      u component:    1.495 m/s
      v component:    1.485 m/s
      w component:    0.979 m/s


U-component (X) statistics from the interpolated hub point:

   Mean =  12.0000 m/s
   TI   =  12.2351 %


Processing complete.  174.41 CPU seconds used.
