
This summary file was generated by TurbSim (from OpenFAST-v4.0.3) on 17-Apr-2025 at 15:04:17.


Runtime Options:

1501552846  Random seed #1
    RANLUX  Type of random number generator
         F  Output binary HH turbulence parameters?
         F  Output formatted turbulence parameters?
         F  Output AeroDyn HH files?
         T  Output AeroDyn FF files?
         F  Output BLADED FF files?
         F  Output tower data?
         F  Output HAWC FF files?
         F  Output formatted FF files?
         F  Output coherent turbulence time step file?
 0 -  NONE  IEC turbulence models scaled to exact specified standard deviation


Turbine/Model Specifications:

        25  Vertical grid-point matrix dimension
        25  Horizontal grid-point matrix dimension
     0.050  Time step [seconds]
   100.000  Analysis time [seconds]
   100.000  Usable output time [seconds]
   150.000  Hub height [m]
   299.999  Grid height [m]
   299.999  Grid width [m]
     0.000  Vertical flow angle [degrees]
     0.000  Horizontal flow angle [degrees]


Meteorological Boundary Conditions:

    IECKAI  IEC Kaimal spectral model
         1  IEC standard: IEC 61400-1 Ed. 3: 2005
         B  IEC turbulence characteristic
       NTM  IEC Normal Turbulence Model
       N/A  IEC Extreme Turbulence Model (ETM) "c" parameter [m/s]
       PL   Wind profile type
   150.000  Reference height [m]
     8.000  Reference wind speed [m/s]
       N/A  Jet height [m]
     0.120  Power law exponent
     0.030  Surface roughness length [m]


Non-IEC Meteorological Boundary Conditions:

       N/A  Site latitude [degrees]
       N/A  Gradient Richardson number
       N/A  Friction or shear velocity [m/s]
       N/A  Mixing layer depth [m]
       N/A  Mean hub u'w' Reynolds stress
       N/A  Mean hub u'v' Reynolds stress
       N/A  Mean hub v'w' Reynolds stress


Spatial Coherence Models:

       IEC  u-component coherence model
      NONE  v-component coherence model
      NONE  w-component coherence model
(   12.000, 0.353E-03)  u-component coherence parameters
                   N/A  v-component coherence parameters
                   N/A  w-component coherence parameters
       N/A  Coherence exponent


You have requested that the following file(s) be generated:

   weis_job_NTM_U8.000000_Seed1501552846.0.bts (AeroDyn/TurbSim full-field wind file)


Turbulence Simulation Scaling Parameter Summary:

   Turbulence model used                            =  IEC Kaimal
   Turbulence characteristic                        =  B
   IEC turbulence type                              =  Normal Turbulence Model
   IEC standard                                     =  IEC 61400-1 Ed. 3: 2005
   Mean wind speed at hub height                    =    8.000 m/s
   Expected value of turbulence intensity at 15 m/s =   14.000%
   Characteristic value of standard deviation       =    1.624 m/s
   Turbulence scale                                 =   42.000 m
   u-component integral scale                       =  340.200 m
   Coherency scale                                  =  340.200 m
   Characteristic value of hub turbulence intensity =   20.300%
   Gradient Richardson number                       =    0.000

   Wind profile type                                =  Power law
   Power law exponent                               =    0.120
   Mean shear across rotor disk                     =    0.023 (m/s)/m
   Assumed rotor diameter                           =  299.999 m
   Surface roughness length                         =    0.030 m

   Nyquist frequency of turbulent wind field        =   10.000 Hz

   Number of time steps in the FFT                  =     2000
   Number of time steps output                      =     2000
   Number of points simulated                       =      625


Mean Flow Angles:

   Vertical   =   0.0 degrees
   Horizontal =   0.0 degrees

Mean Wind Speed Profile:

   Height    Wind Speed   Horizontal Angle  Vertical Angle  U-comp (X)   V-comp (Y)   W-comp (Z)
     (m)        (m/s)         (degrees)       (degrees)       (m/s)        (m/s)        (m/s)   
   ------    ----------   ----------------  --------------  ----------   ----------   ----------
    300.0        8.69            0.00            0.00          8.69         0.00         0.00
    287.5        8.65            0.00            0.00          8.65         0.00         0.00
    275.0        8.60            0.00            0.00          8.60         0.00         0.00
    262.5        8.56            0.00            0.00          8.56         0.00         0.00
    250.0        8.51            0.00            0.00          8.51         0.00         0.00
    237.5        8.45            0.00            0.00          8.45         0.00         0.00
    225.0        8.40            0.00            0.00          8.40         0.00         0.00
    212.5        8.34            0.00            0.00          8.34         0.00         0.00
    200.0        8.28            0.00            0.00          8.28         0.00         0.00
    187.5        8.22            0.00            0.00          8.22         0.00         0.00
    175.0        8.15            0.00            0.00          8.15         0.00         0.00
    162.5        8.08            0.00            0.00          8.08         0.00         0.00
    150.0        8.00            0.00            0.00          8.00         0.00         0.00
    137.5        7.92            0.00            0.00          7.92         0.00         0.00
    125.0        7.83            0.00            0.00          7.83         0.00         0.00
    112.5        7.73            0.00            0.00          7.73         0.00         0.00
    100.0        7.62            0.00            0.00          7.62         0.00         0.00
     87.5        7.50            0.00            0.00          7.50         0.00         0.00
     75.0        7.36            0.00            0.00          7.36         0.00         0.00
     62.5        7.20            0.00            0.00          7.20         0.00         0.00
     50.0        7.01            0.00            0.00          7.01         0.00         0.00
     37.5        6.77            0.00            0.00          6.77         0.00         0.00
     25.0        6.45            0.00            0.00          6.45         0.00         0.00
     12.5        5.94            0.00            0.00          5.94         0.00         0.00
      0.0        1.77            0.00            0.00          1.77         0.00         0.00


Harvested Random Seeds after Generation of the Random Numbers:

     17421875 K 1
            0 K 2


Hub-Height Simulated Turbulence Statistical Summary:

   Type of Wind        Min (m/s)   Mean (m/s)    Max (m/s)  Sigma (m/s)       TI (%)
   ----------------    ---------   ----------    ---------  -----------       ------
   Longitudinal (u)         4.09         8.00        11.50        1.539       19.236
   Lateral (v)             -3.26        -0.00         2.98        1.137       14.218
   Vertical (w)            -2.40         0.00         2.16        0.773        9.663
   U component              4.09         8.00        11.50        1.539       19.236
   V component             -3.26        -0.00         2.98        1.137       14.218
   W component             -2.40         0.00         2.16        0.773        9.663
   Horizontal (U&V)         4.16         8.08        11.50        1.534       18.984
   Total                    4.23         8.12        11.54        1.531       18.854

                       Min Reynolds     Mean Reynolds    Max Reynolds    Correlation
   Product             Stress (m/s)^2   Stress (m/s)^2   Stress (m/s)^2  Coefficient
   ----------------    --------------   --------------   --------------  -----------
   u'w'                     -6.118             0.254             5.474         0.214
   u'v'                     -5.276            -0.183             4.824        -0.105
   v'w'                     -3.397            -0.002             3.470        -0.002


   Friction Velocity (Ustar)  =      0.504 m/s
   Maximum Instantaneous TKE  =      8.697 (m/s)^2
   Maximum Instantaneous CTKE =      3.601 (m/s)^2


Grid Point Variance Summary:

   Y-coord -150.00 -137.50 -125.00 -112.50 -100.00  -87.50  -75.00  -62.50  -50.00  -37.50  -25.00  -12.50    0.00   12.50   25.00   37.50   50.00   62.50   75.00   87.50  100.00  112.50  125.00  137.50  150.00

   Height   Standard deviation at grid points for the u component:
   300.00    0.953   0.958   0.981   0.949   0.865   0.979   1.335   0.995   1.231   1.275   1.224   0.940   1.166   1.292   1.185   1.222   0.981   1.148   1.276   1.104   1.471   1.478   1.458   0.859   1.060
   287.50    1.257   1.227   1.034   0.769   0.942   0.959   1.071   1.262   1.081   1.119   0.990   1.013   1.165   1.248   1.315   1.334   1.178   0.966   1.248   1.124   1.340   1.201   1.094   1.067   0.822
   275.00    1.092   1.192   0.955   1.017   1.190   1.137   1.093   1.116   0.843   0.755   0.970   0.864   1.164   1.226   1.451   1.329   0.857   0.919   1.284   1.301   1.189   1.223   0.972   1.017   1.050
   262.50    1.547   1.165   1.184   1.163   1.306   1.368   1.142   0.883   1.280   0.911   1.159   1.021   1.233   1.626   1.416   1.264   1.022   0.859   1.250   1.216   1.131   1.061   1.061   0.968   1.266
   250.00    1.693   1.345   0.845   1.115   1.051   1.160   1.134   1.209   1.316   1.307   0.971   1.180   1.306   1.431   1.593   1.359   1.130   1.098   1.082   1.098   1.248   1.501   1.001   1.171   1.225
   237.50    1.662   1.414   0.864   1.181   1.228   1.168   1.339   1.205   1.255   1.173   1.203   1.228   1.113   1.446   1.508   1.122   1.364   1.353   1.037   1.127   1.268   1.488   1.151   1.212   1.464
   225.00    1.500   1.272   1.239   1.202   1.427   1.203   1.272   1.176   1.007   1.119   1.522   1.097   1.185   1.509   1.531   1.432   1.078   1.102   1.199   1.023   1.125   1.362   0.958   1.090   1.361
   212.50    1.540   1.438   1.501   1.623   1.706   1.630   1.657   1.293   1.378   1.606   1.452   1.517   1.327   1.803   1.582   1.720   1.446   0.992   1.026   1.307   1.341   1.093   1.262   1.133   1.177
   200.00    1.293   1.487   1.351   1.422   1.189   1.457   1.510   1.200   1.226   1.271   1.430   1.257   1.771   1.625   1.887   1.484   1.400   1.338   1.139   1.385   1.166   1.211   1.378   1.218   1.071
   187.50    1.253   1.157   1.022   1.370   1.302   1.070   1.193   0.877   1.037   0.845   1.341   1.392   1.597   1.647   1.841   1.514   1.755   1.683   1.681   1.366   1.352   1.328   1.121   1.126   1.242
   175.00    1.141   1.135   1.101   1.302   1.215   0.956   0.918   1.072   0.890   1.223   1.464   1.375   1.307   1.542   1.681   1.500   1.797   1.677   1.361   1.241   1.091   1.365   1.085   0.913   1.013
   162.50    1.087   1.131   1.064   1.109   1.137   1.054   1.173   0.893   0.885   0.956   1.074   1.474   1.437   1.439   1.789   1.606   1.677   1.410   1.315   1.365   1.362   1.417   1.242   0.880   0.983
   150.00    1.168   1.187   1.247   1.221   1.119   1.478   1.279   1.102   1.131   0.941   1.246   1.406   1.539   1.460   1.483   1.435   1.558   1.549   1.229   1.118   1.117   1.332   1.427   1.318   1.217
   137.50    1.158   1.490   1.402   1.112   1.163   1.244   1.367   1.111   1.193   1.296   1.110   1.361   1.394   1.137   1.103   1.240   1.227   1.223   1.146   1.344   0.981   1.150   1.164   1.109   0.761
   125.00    1.402   1.335   0.951   1.217   1.146   1.156   1.444   1.310   1.241   1.300   1.170   1.355   1.290   1.135   1.063   0.965   0.996   1.046   1.112   1.343   0.987   1.036   1.160   1.057   0.914
   112.50    1.348   1.356   1.315   1.113   1.038   1.302   1.139   1.295   1.412   1.315   1.244   1.427   1.147   1.228   1.177   1.073   1.047   0.878   0.741   0.935   1.013   1.063   1.124   0.912   0.916
   100.00    1.401   1.250   1.264   1.407   1.112   1.468   1.152   1.165   1.521   1.478   1.521   1.382   1.068   1.162   0.931   0.911   1.167   1.051   0.908   0.872   0.800   0.898   0.858   0.961   1.095
    87.50    1.315   1.217   1.365   1.457   1.519   1.546   1.324   1.631   1.622   1.417   1.184   1.194   1.052   0.962   1.077   0.938   1.044   0.915   1.007   0.940   0.929   0.892   1.138   0.922   1.030
    75.00    1.331   1.143   1.146   1.144   1.199   1.251   1.120   1.502   1.458   1.532   1.146   1.182   0.893   1.045   1.108   1.182   0.980   0.933   1.076   0.791   1.158   1.216   1.418   1.261   1.310
    62.50    1.056   1.107   1.015   0.842   1.220   1.616   1.263   1.376   1.802   1.618   0.938   1.010   1.163   1.370   1.049   0.966   0.931   0.932   1.155   1.193   1.067   1.063   1.136   1.180   1.181
    50.00    1.188   1.145   1.127   1.224   1.158   1.404   1.583   1.660   1.813   1.592   1.163   1.117   0.904   1.085   0.939   1.010   1.059   0.935   1.392   1.460   1.567   1.036   0.816   0.838   0.915
    37.50    1.344   1.158   1.178   0.935   1.228   1.293   1.236   1.644   1.547   1.600   1.564   1.442   0.965   0.953   0.994   1.054   0.970   1.170   1.094   1.528   1.475   1.280   1.080   0.856   1.119
    25.00    1.189   1.256   1.244   0.945   1.344   1.182   1.198   1.432   1.298   1.470   1.566   1.184   0.950   1.002   0.987   0.888   1.159   1.180   1.342   1.327   1.366   1.461   1.175   1.062   0.966
    12.50    0.948   1.191   1.433   1.084   1.278   1.497   1.167   1.183   1.070   1.242   1.416   1.313   1.036   0.887   0.867   0.860   0.999   1.149   1.142   1.170   0.943   1.174   0.826   0.963   1.059
     0.00    1.200   1.337   1.459   0.967   1.148   1.386   1.533   1.133   1.282   1.449   1.209   1.225   1.184   0.945   0.926   1.113   1.098   0.963   0.790   0.975   1.162   1.192   1.148   1.002   0.953

   Height   Standard deviation at grid points for the v component:
   300.00    1.137   1.137   1.137   1.137   1.137   1.137   1.137   1.137   1.137   1.137   1.137   1.137   1.137   1.137   1.137   1.137   1.137   1.137   1.137   1.137   1.137   1.137   1.137   1.137   1.137
   287.50    1.137   1.137   1.137   1.137   1.137   1.137   1.137   1.137   1.137   1.137   1.137   1.137   1.137   1.137   1.137   1.137   1.137   1.137   1.137   1.137   1.137   1.137   1.137   1.137   1.137
   275.00    1.137   1.137   1.137   1.137   1.137   1.137   1.137   1.137   1.137   1.137   1.137   1.137   1.137   1.137   1.137   1.137   1.137   1.137   1.137   1.137   1.137   1.137   1.137   1.137   1.137
   262.50    1.137   1.137   1.137   1.137   1.137   1.137   1.137   1.137   1.137   1.137   1.137   1.137   1.137   1.137   1.137   1.137   1.137   1.137   1.137   1.137   1.137   1.137   1.137   1.137   1.137
   250.00    1.137   1.137   1.137   1.137   1.137   1.137   1.137   1.137   1.137   1.137   1.137   1.137   1.137   1.137   1.137   1.137   1.137   1.137   1.137   1.137   1.137   1.137   1.137   1.137   1.137
   237.50    1.137   1.137   1.137   1.137   1.137   1.137   1.137   1.137   1.137   1.137   1.137   1.137   1.137   1.137   1.137   1.137   1.137   1.137   1.137   1.137   1.137   1.137   1.137   1.137   1.137
   225.00    1.137   1.137   1.137   1.137   1.137   1.137   1.137   1.137   1.137   1.137   1.137   1.137   1.137   1.137   1.137   1.137   1.137   1.137   1.137   1.137   1.137   1.137   1.137   1.137   1.137
   212.50    1.137   1.137   1.137   1.137   1.137   1.137   1.137   1.137   1.137   1.137   1.137   1.137   1.137   1.137   1.137   1.137   1.137   1.137   1.137   1.137   1.137   1.137   1.137   1.137   1.137
   200.00    1.137   1.137   1.137   1.137   1.137   1.137   1.137   1.137   1.137   1.137   1.137   1.137   1.137   1.137   1.137   1.137   1.137   1.137   1.137   1.137   1.137   1.137   1.137   1.137   1.137
   187.50    1.137   1.137   1.137   1.137   1.137   1.137   1.137   1.137   1.137   1.137   1.137   1.137   1.137   1.137   1.137   1.137   1.137   1.137   1.137   1.137   1.137   1.137   1.137   1.137   1.137
   175.00    1.137   1.137   1.137   1.137   1.137   1.137   1.137   1.137   1.137   1.137   1.137   1.137   1.137   1.137   1.137   1.137   1.137   1.137   1.137   1.137   1.137   1.137   1.137   1.137   1.137
   162.50    1.137   1.137   1.137   1.137   1.137   1.137   1.137   1.137   1.137   1.137   1.137   1.137   1.137   1.137   1.137   1.137   1.137   1.137   1.137   1.137   1.137   1.137   1.137   1.137   1.137
   150.00    1.137   1.137   1.137   1.137   1.137   1.137   1.137   1.137   1.137   1.137   1.137   1.137   1.137   1.137   1.137   1.137   1.137   1.137   1.137   1.137   1.137   1.137   1.137   1.137   1.137
   137.50    1.137   1.137   1.137   1.137   1.137   1.137   1.137   1.137   1.137   1.137   1.137   1.137   1.137   1.137   1.137   1.137   1.137   1.137   1.137   1.137   1.137   1.137   1.137   1.137   1.137
   125.00    1.137   1.137   1.137   1.137   1.137   1.137   1.137   1.137   1.137   1.137   1.137   1.137   1.137   1.137   1.137   1.137   1.137   1.137   1.137   1.137   1.137   1.137   1.137   1.137   1.137
   112.50    1.137   1.137   1.137   1.137   1.137   1.137   1.137   1.137   1.137   1.137   1.137   1.137   1.137   1.137   1.137   1.137   1.137   1.137   1.137   1.137   1.137   1.137   1.137   1.137   1.137
   100.00    1.137   1.137   1.137   1.137   1.137   1.137   1.137   1.137   1.137   1.137   1.137   1.137   1.137   1.137   1.137   1.137   1.137   1.137   1.137   1.137   1.137   1.137   1.137   1.137   1.137
    87.50    1.137   1.137   1.137   1.137   1.137   1.137   1.137   1.137   1.137   1.137   1.137   1.137   1.137   1.137   1.137   1.137   1.137   1.137   1.137   1.137   1.137   1.137   1.137   1.137   1.137
    75.00    1.137   1.137   1.137   1.137   1.137   1.137   1.137   1.137   1.137   1.137   1.137   1.137   1.137   1.137   1.137   1.137   1.137   1.137   1.137   1.137   1.137   1.137   1.137   1.137   1.137
    62.50    1.137   1.137   1.137   1.137   1.137   1.137   1.137   1.137   1.137   1.137   1.137   1.137   1.137   1.137   1.137   1.137   1.137   1.137   1.137   1.137   1.137   1.137   1.137   1.137   1.137
    50.00    1.137   1.137   1.137   1.137   1.137   1.137   1.137   1.137   1.137   1.137   1.137   1.137   1.137   1.137   1.137   1.137   1.137   1.137   1.137   1.137   1.137   1.137   1.137   1.137   1.137
    37.50    1.137   1.137   1.137   1.137   1.137   1.137   1.137   1.137   1.137   1.137   1.137   1.137   1.137   1.137   1.137   1.137   1.137   1.137   1.137   1.137   1.137   1.137   1.137   1.137   1.137
    25.00    1.137   1.137   1.137   1.137   1.137   1.137   1.137   1.137   1.137   1.137   1.137   1.137   1.137   1.137   1.137   1.137   1.137   1.137   1.137   1.137   1.137   1.137   1.137   1.137   1.137
    12.50    1.137   1.137   1.137   1.137   1.137   1.137   1.137   1.137   1.137   1.137   1.137   1.137   1.137   1.137   1.137   1.137   1.137   1.137   1.137   1.137   1.137   1.137   1.137   1.137   1.137
     0.00    1.137   1.137   1.137   1.137   1.137   1.137   1.137   1.137   1.137   1.137   1.137   1.137   1.137   1.137   1.137   1.137   1.137   1.137   1.137   1.137   1.137   1.137   1.137   1.137   1.137

   Height   Standard deviation at grid points for the w component:
   300.00    0.773   0.773   0.773   0.773   0.773   0.773   0.773   0.773   0.773   0.773   0.773   0.773   0.773   0.773   0.773   0.773   0.773   0.773   0.773   0.773   0.773   0.773   0.773   0.773   0.773
   287.50    0.773   0.773   0.773   0.773   0.773   0.773   0.773   0.773   0.773   0.773   0.773   0.773   0.773   0.773   0.773   0.773   0.773   0.773   0.773   0.773   0.773   0.773   0.773   0.773   0.773
   275.00    0.773   0.773   0.773   0.773   0.773   0.773   0.773   0.773   0.773   0.773   0.773   0.773   0.773   0.773   0.773   0.773   0.773   0.773   0.773   0.773   0.773   0.773   0.773   0.773   0.773
   262.50    0.773   0.773   0.773   0.773   0.773   0.773   0.773   0.773   0.773   0.773   0.773   0.773   0.773   0.773   0.773   0.773   0.773   0.773   0.773   0.773   0.773   0.773   0.773   0.773   0.773
   250.00    0.773   0.773   0.773   0.773   0.773   0.773   0.773   0.773   0.773   0.773   0.773   0.773   0.773   0.773   0.773   0.773   0.773   0.773   0.773   0.773   0.773   0.773   0.773   0.773   0.773
   237.50    0.773   0.773   0.773   0.773   0.773   0.773   0.773   0.773   0.773   0.773   0.773   0.773   0.773   0.773   0.773   0.773   0.773   0.773   0.773   0.773   0.773   0.773   0.773   0.773   0.773
   225.00    0.773   0.773   0.773   0.773   0.773   0.773   0.773   0.773   0.773   0.773   0.773   0.773   0.773   0.773   0.773   0.773   0.773   0.773   0.773   0.773   0.773   0.773   0.773   0.773   0.773
   212.50    0.773   0.773   0.773   0.773   0.773   0.773   0.773   0.773   0.773   0.773   0.773   0.773   0.773   0.773   0.773   0.773   0.773   0.773   0.773   0.773   0.773   0.773   0.773   0.773   0.773
   200.00    0.773   0.773   0.773   0.773   0.773   0.773   0.773   0.773   0.773   0.773   0.773   0.773   0.773   0.773   0.773   0.773   0.773   0.773   0.773   0.773   0.773   0.773   0.773   0.773   0.773
   187.50    0.773   0.773   0.773   0.773   0.773   0.773   0.773   0.773   0.773   0.773   0.773   0.773   0.773   0.773   0.773   0.773   0.773   0.773   0.773   0.773   0.773   0.773   0.773   0.773   0.773
   175.00    0.773   0.773   0.773   0.773   0.773   0.773   0.773   0.773   0.773   0.773   0.773   0.773   0.773   0.773   0.773   0.773   0.773   0.773   0.773   0.773   0.773   0.773   0.773   0.773   0.773
   162.50    0.773   0.773   0.773   0.773   0.773   0.773   0.773   0.773   0.773   0.773   0.773   0.773   0.773   0.773   0.773   0.773   0.773   0.773   0.773   0.773   0.773   0.773   0.773   0.773   0.773
   150.00    0.773   0.773   0.773   0.773   0.773   0.773   0.773   0.773   0.773   0.773   0.773   0.773   0.773   0.773   0.773   0.773   0.773   0.773   0.773   0.773   0.773   0.773   0.773   0.773   0.773
   137.50    0.773   0.773   0.773   0.773   0.773   0.773   0.773   0.773   0.773   0.773   0.773   0.773   0.773   0.773   0.773   0.773   0.773   0.773   0.773   0.773   0.773   0.773   0.773   0.773   0.773
   125.00    0.773   0.773   0.773   0.773   0.773   0.773   0.773   0.773   0.773   0.773   0.773   0.773   0.773   0.773   0.773   0.773   0.773   0.773   0.773   0.773   0.773   0.773   0.773   0.773   0.773
   112.50    0.773   0.773   0.773   0.773   0.773   0.773   0.773   0.773   0.773   0.773   0.773   0.773   0.773   0.773   0.773   0.773   0.773   0.773   0.773   0.773   0.773   0.773   0.773   0.773   0.773
   100.00    0.773   0.773   0.773   0.773   0.773   0.773   0.773   0.773   0.773   0.773   0.773   0.773   0.773   0.773   0.773   0.773   0.773   0.773   0.773   0.773   0.773   0.773   0.773   0.773   0.773
    87.50    0.773   0.773   0.773   0.773   0.773   0.773   0.773   0.773   0.773   0.773   0.773   0.773   0.773   0.773   0.773   0.773   0.773   0.773   0.773   0.773   0.773   0.773   0.773   0.773   0.773
    75.00    0.773   0.773   0.773   0.773   0.773   0.773   0.773   0.773   0.773   0.773   0.773   0.773   0.773   0.773   0.773   0.773   0.773   0.773   0.773   0.773   0.773   0.773   0.773   0.773   0.773
    62.50    0.773   0.773   0.773   0.773   0.773   0.773   0.773   0.773   0.773   0.773   0.773   0.773   0.773   0.773   0.773   0.773   0.773   0.773   0.773   0.773   0.773   0.773   0.773   0.773   0.773
    50.00    0.773   0.773   0.773   0.773   0.773   0.773   0.773   0.773   0.773   0.773   0.773   0.773   0.773   0.773   0.773   0.773   0.773   0.773   0.773   0.773   0.773   0.773   0.773   0.773   0.773
    37.50    0.773   0.773   0.773   0.773   0.773   0.773   0.773   0.773   0.773   0.773   0.773   0.773   0.773   0.773   0.773   0.773   0.773   0.773   0.773   0.773   0.773   0.773   0.773   0.773   0.773
    25.00    0.773   0.773   0.773   0.773   0.773   0.773   0.773   0.773   0.773   0.773   0.773   0.773   0.773   0.773   0.773   0.773   0.773   0.773   0.773   0.773   0.773   0.773   0.773   0.773   0.773
    12.50    0.773   0.773   0.773   0.773   0.773   0.773   0.773   0.773   0.773   0.773   0.773   0.773   0.773   0.773   0.773   0.773   0.773   0.773   0.773   0.773   0.773   0.773   0.773   0.773   0.773
     0.00    0.773   0.773   0.773   0.773   0.773   0.773   0.773   0.773   0.773   0.773   0.773   0.773   0.773   0.773   0.773   0.773   0.773   0.773   0.773   0.773   0.773   0.773   0.773   0.773   0.773

   Mean standard deviation across all grid points:
      u component:    1.210 m/s
      v component:    1.137 m/s
      w component:    0.773 m/s


U-component (X) statistics from the interpolated hub point:

   Mean =   8.0000 m/s
   TI   =  19.2358 %


Processing complete.  176.8 CPU seconds used.
